
*  Netlist Is Generated By VMAC Netlister
*  VMAC version : 20.06.26_rc
*  Generated for: hspiceD
*  Generated on: Jan 31 11:43:10 2024
*  Design library name: flat_schematic_lib
*  Design cell name: i0mzdcf33ub1n32x5
*  Design view name: schematic
*  Library name: flat_schematic_lib
*  Cell name: i0mzdcf33ub1n32x5
*  View name: schematic
.SUBCKT i0mzdcf33ub1n32x5 vcc vssx 
*  INOUT: vcc vssx
*  INPUT:
*  OUTPUT:
Mqpdecap1.mp3 vcc vssx vcc vcc phpalvt W=3 L=14e-9 M=31 NF=1 LVSEXACTMATCH=1 
.ENDS

*  Netlist Is Generated By VMAC Netlister
*  VMAC version : 20.06.26_rc
*  Generated for: hspiceD
*  Generated on: Jan 31 11:43:18 2024
*  Design library name: flat_schematic_lib
*  Design cell name: i0mzdcf33ub1n16x5
*  Design view name: schematic
*  Library name: flat_schematic_lib
*  Cell name: i0mzdcf33ub1n16x5
*  View name: schematic
.SUBCKT i0mzdcf33ub1n16x5 vcc vssx 
*  INOUT: vcc vssx
*  INPUT:
*  OUTPUT:
Mqpdecap1.mp3 vcc vssx vcc vcc phpalvt W=3 L=14e-9 M=15 NF=1 LVSEXACTMATCH=1 
.ENDS

*  Netlist Is Generated By VMAC Netlister
*  VMAC version : 20.06.26_rc
*  Generated for: hspiceD
*  Generated on: Jan 31 11:43:13 2024
*  Design library name: flat_schematic_lib
*  Design cell name: i0mzdcf33ub1n08x5
*  Design view name: schematic
*  Library name: flat_schematic_lib
*  Cell name: i0mzdcf33ub1n08x5
*  View name: schematic
.SUBCKT i0mzdcf33ub1n08x5 vcc vssx 
*  INOUT: vcc vssx
*  INPUT:
*  OUTPUT:
Mqpdecap1.mp3 vcc vssx vcc vcc phpalvt W=3 L=14e-9 M=7 NF=1 LVSEXACTMATCH=1 
.ENDS

*  Netlist Is Generated By VMAC Netlister
*  VMAC version : 20.06.26_rc
*  Generated for: hspiceD
*  Generated on: Oct 18 00:33:36 2023
*  Design library name: flat_schematic_lib
*  Design cell name: i0mzdcf33ub1n04x5
*  Design view name: schematic
*  Library name: flat_schematic_lib
*  Cell name: i0mzdcf33ub1n04x5
*  View name: schematic
.SUBCKT i0mzdcf33ub1n04x5 vcc vssx 
*  INOUT: vcc vssx
*  INPUT:
*  OUTPUT:
Mqpdecap1.mp3 vcc vssx vcc vcc phpalvt W=3 L=14e-9 M=3 NF=1 LVSEXACTMATCH=1 
.ENDS

*  Netlist Is Generated By VMAC Netlister
*  VMAC version : 20.06.26_rc
*  Generated for: hspiceD
*  Generated on: Oct 25 02:19:03 2023
*  Design library name: flat_schematic_lib
*  Design cell name: i0mydp122uc1n00x5
*  Design view name: schematic
*  Library name: flat_schematic_lib
*  Cell name: i0mydp122uc1n00x5
*  View name: schematic
.SUBCKT i0mydp122uc1n00x5 dpd1 vcc vssx 
*  INOUT: vcc vssx
*  INPUT: dpd1
*  OUTPUT:
Mqngnac1.mn2 dpd1 vssx vssx vssx nhpasvt W=2 L=14e-9 M=1 NF=1 LVSEXACTMATCH=1 
.ENDS

*  Netlist Is Generated By VMAC Netlister
*  VMAC version : 20.06.26_rc
*  Generated for: hspiceD
*  Generated on: Oct 25 02:19:03 2023
*  Design library name: flat_schematic_lib
*  Design cell name: i0mydp122ub1n00x5
*  Design view name: schematic
*  Library name: flat_schematic_lib
*  Cell name: i0mydp122ub1n00x5
*  View name: schematic
.SUBCKT i0mydp122ub1n00x5 dpd1 vcc vssx 
*  INOUT: vcc vssx
*  INPUT: dpd1
*  OUTPUT:
Mqngnac1.mn2 dpd1 vssx vssx vssx nhpalvt W=2 L=14e-9 M=1 NF=1 LVSEXACTMATCH=1 
.ENDS

*  Netlist Is Generated By VMAC Netlister
*  VMAC version : 20.06.26_rc
*  Generated for: hspiceD
*  Generated on: Oct  6 19:42:04 2023
*  Design library name: flat_schematic_lib
*  Design cell name: i0morn002ac1n09x5
*  Design view name: schematic
*  Library name: flat_schematic_lib
*  Cell name: i0morn002ac1n09x5
*  View name: schematic
.SUBCKT i0morn002ac1n09x5 a b o vcc vssx 
*  INOUT: vcc vssx
*  INPUT: a b
*  OUTPUT: o
Mg1.qpb.mp3 g1.n1 b vcc vcc phpasvt W=3 L=14e-9 M=1 NF=1 LVSEXACTMATCH=1 
Mg1.qpa.mp3 n1 a g1.n1 vcc phpasvt W=3 L=14e-9 M=1 NF=1 LVSEXACTMATCH=1 
Mg1.qna.mn3 n1 a vssx vssx nhpasvt W=3 L=14e-9 M=1 NF=1 LVSEXACTMATCH=1 
Mg1.qnb.mn3 n1 b vssx vssx nhpasvt W=3 L=14e-9 M=1 NF=1 LVSEXACTMATCH=1 
Mg101.qna.mn3 o n1 vssx vssx nhpasvt W=3 L=14e-9 M=3 NF=1 LVSEXACTMATCH=1 
Mg101.qpa.mp3 o n1 vcc vcc phpasvt W=3 L=14e-9 M=3 NF=1 LVSEXACTMATCH=1 
.ENDS

*  Netlist Is Generated By VMAC Netlister
*  VMAC version : 20.06.26_rc
*  Generated for: hspiceD
*  Generated on: Oct  4 21:23:16 2023
*  Design library name: flat_schematic_lib
*  Design cell name: i0morn002ac1n02x5
*  Design view name: schematic
*  Library name: flat_schematic_lib
*  Cell name: i0morn002ac1n02x5
*  View name: schematic
.SUBCKT i0morn002ac1n02x5 a b o vcc vssx 
*  INOUT: vcc vssx
*  INPUT: a b
*  OUTPUT: o
Mg1.qpb.mp2 g1.n1 b vcc vcc phpasvt W=2 L=14e-9 M=1 NF=1 LVSEXACTMATCH=1 
Mg1.qpa.mp2 n1 a g1.n1 vcc phpasvt W=2 L=14e-9 M=1 NF=1 LVSEXACTMATCH=1 
Mg1.qna.mn2 n1 a vssx vssx nhpasvt W=2 L=14e-9 M=1 NF=1 LVSEXACTMATCH=1 
Mg1.qnb.mn2 n1 b vssx vssx nhpasvt W=2 L=14e-9 M=1 NF=1 LVSEXACTMATCH=1 
Mg101.qna.mn2 o n1 vssx vssx nhpasvt W=2 L=14e-9 M=1 NF=1 LVSEXACTMATCH=1 
Mg101.qpa.mp2 o n1 vcc vcc phpasvt W=2 L=14e-9 M=1 NF=1 LVSEXACTMATCH=1 
.ENDS

*  Netlist Is Generated By VMAC Netlister
*  VMAC version : 20.06.26_rc
*  Generated for: hspiceD
*  Generated on: Oct  6 19:51:18 2023
*  Design library name: flat_schematic_lib
*  Design cell name: i0mnor042ac1n03x5
*  Design view name: schematic
*  Library name: flat_schematic_lib
*  Cell name: i0mnor042ac1n03x5
*  View name: schematic
.SUBCKT i0mnor042ac1n03x5 a b o1 vcc vssx 
*  INOUT: vcc vssx
*  INPUT: a b
*  OUTPUT: o1
Mg0.qpb.mp3 g0.n1 b vcc vcc phpasvt W=3 L=14e-9 M=2 NF=1 LVSEXACTMATCH=1 
Mg0.qpa.mp3 o1 a g0.n1 vcc phpasvt W=3 L=14e-9 M=2 NF=1 LVSEXACTMATCH=1 
Mg0.qna.mn3 o1 a vssx vssx nhpasvt W=3 L=14e-9 M=1 NF=1 LVSEXACTMATCH=1 
Mg0.qnb.mn3 o1 b vssx vssx nhpasvt W=3 L=14e-9 M=1 NF=1 LVSEXACTMATCH=1 
.ENDS

*  Netlist Is Generated By VMAC Netlister
*  VMAC version : 20.06.26_rc
*  Generated for: hspiceD
*  Generated on: Oct  6 12:22:56 2023
*  Design library name: flat_schematic_lib
*  Design cell name: i0mnor003ac1n06x5
*  Design view name: schematic
*  Library name: flat_schematic_lib
*  Cell name: i0mnor003ac1n06x5
*  View name: schematic
.SUBCKT i0mnor003ac1n06x5 a b c o1 vcc vssx 
*  INOUT: vcc vssx
*  INPUT: a b c
*  OUTPUT: o1
Mg0.qpc.mp3 g0.n1 c vcc vcc phpasvt W=3 L=14e-9 M=3 NF=1 LVSEXACTMATCH=1 
Mg0.qpb.mp3 g0.n2 b g0.n1 vcc phpasvt W=3 L=14e-9 M=3 NF=1 LVSEXACTMATCH=1 
Mg0.qpa.mp3 o1 a g0.n2 vcc phpasvt W=3 L=14e-9 M=3 NF=1 LVSEXACTMATCH=1 
Mg0.qna.mn2 o1 a vssx vssx nhpasvt W=2 L=14e-9 M=3 NF=1 LVSEXACTMATCH=1 
Mg0.qnb.mn2 o1 b vssx vssx nhpasvt W=2 L=14e-9 M=3 NF=1 LVSEXACTMATCH=1 
Mg0.qnc.mn2 o1 c vssx vssx nhpasvt W=2 L=14e-9 M=3 NF=1 LVSEXACTMATCH=1 
.ENDS

*  Netlist Is Generated By VMAC Netlister
*  VMAC version : 20.06.26_rc
*  Generated for: hspiceD
*  Generated on: Oct  6 12:21:21 2023
*  Design library name: flat_schematic_lib
*  Design cell name: i0mnor003ac1n03x5
*  Design view name: schematic
*  Library name: flat_schematic_lib
*  Cell name: i0mnor003ac1n03x5
*  View name: schematic
.SUBCKT i0mnor003ac1n03x5 a b c o1 vcc vssx 
*  INOUT: vcc vssx
*  INPUT: a b c
*  OUTPUT: o1
Mg0.qpc.mp2 g0.n1 c vcc vcc phpasvt W=2 L=14e-9 M=2 NF=1 LVSEXACTMATCH=1 
Mg0.qpb.mp2 g0.n2 b g0.n1 vcc phpasvt W=2 L=14e-9 M=2 NF=1 LVSEXACTMATCH=1 
Mg0.qpa.mp2 o1 a g0.n2 vcc phpasvt W=2 L=14e-9 M=2 NF=1 LVSEXACTMATCH=1 
Mg0.qna.mn3 o1 a vssx vssx nhpasvt W=3 L=14e-9 M=1 NF=1 LVSEXACTMATCH=1 
Mg0.qnb.mn3 o1 b vssx vssx nhpasvt W=3 L=14e-9 M=1 NF=1 LVSEXACTMATCH=1 
Mg0.qnc.mn3 o1 c vssx vssx nhpasvt W=3 L=14e-9 M=1 NF=1 LVSEXACTMATCH=1 
.ENDS

*  Netlist Is Generated By VMAC Netlister
*  VMAC version : 20.06.26_rc
*  Generated for: hspiceD
*  Generated on: Oct  6 19:53:54 2023
*  Design library name: flat_schematic_lib
*  Design cell name: i0mnor003ab1n12x5
*  Design view name: schematic
*  Library name: flat_schematic_lib
*  Cell name: i0mnor003ab1n12x5
*  View name: schematic
.SUBCKT i0mnor003ab1n12x5 a b c o1 vcc vssx 
*  INOUT: vcc vssx
*  INPUT: a b c
*  OUTPUT: o1
Mg0.qpc.mp3 g0.n1 c vcc vcc phpalvt W=3 L=14e-9 M=6 NF=1 LVSEXACTMATCH=1 
Mg0.qpb.mp3 g0.n2 b g0.n1 vcc phpalvt W=3 L=14e-9 M=6 NF=1 LVSEXACTMATCH=1 
Mg0.qpa.mp3 o1 a g0.n2 vcc phpalvt W=3 L=14e-9 M=6 NF=1 LVSEXACTMATCH=1 
Mg0.qna.mn2 o1 a vssx vssx nhpalvt W=2 L=14e-9 M=6 NF=1 LVSEXACTMATCH=1 
Mg0.qnb.mn2 o1 b vssx vssx nhpalvt W=2 L=14e-9 M=6 NF=1 LVSEXACTMATCH=1 
Mg0.qnc.mn2 o1 c vssx vssx nhpalvt W=2 L=14e-9 M=6 NF=1 LVSEXACTMATCH=1 
.ENDS

*  Netlist Is Generated By VMAC Netlister
*  VMAC version : 20.06.26_rc
*  Generated for: hspiceD
*  Generated on: Oct  6 19:45:37 2023
*  Design library name: flat_schematic_lib
*  Design cell name: i0mnor003ab1n10x5
*  Design view name: schematic
*  Library name: flat_schematic_lib
*  Cell name: i0mnor003ab1n10x5
*  View name: schematic
.SUBCKT i0mnor003ab1n10x5 a b c o1 vcc vssx 
*  INOUT: vcc vssx
*  INPUT: a b c
*  OUTPUT: o1
Mg0.qpc.mp3 g0.n1 c vcc vcc phpalvt W=3 L=14e-9 M=5 NF=1 LVSEXACTMATCH=1 
Mg0.qpb.mp3 g0.n2 b g0.n1 vcc phpalvt W=3 L=14e-9 M=5 NF=1 LVSEXACTMATCH=1 
Mg0.qpa.mp3 o1 a g0.n2 vcc phpalvt W=3 L=14e-9 M=5 NF=1 LVSEXACTMATCH=1 
Mg0.qna.mn2 o1 a vssx vssx nhpalvt W=2 L=14e-9 M=5 NF=1 LVSEXACTMATCH=1 
Mg0.qnb.mn2 o1 b vssx vssx nhpalvt W=2 L=14e-9 M=5 NF=1 LVSEXACTMATCH=1 
Mg0.qnc.mn2 o1 c vssx vssx nhpalvt W=2 L=14e-9 M=5 NF=1 LVSEXACTMATCH=1 
.ENDS

*  Netlist Is Generated By VMAC Netlister
*  VMAC version : 20.06.26_rc
*  Generated for: hspiceD
*  Generated on: Oct  6 12:21:18 2023
*  Design library name: flat_schematic_lib
*  Design cell name: i0mnor003ab1n03x5
*  Design view name: schematic
*  Library name: flat_schematic_lib
*  Cell name: i0mnor003ab1n03x5
*  View name: schematic
.SUBCKT i0mnor003ab1n03x5 a b c o1 vcc vssx 
*  INOUT: vcc vssx
*  INPUT: a b c
*  OUTPUT: o1
Mg0.qpc.mp2 g0.n1 c vcc vcc phpalvt W=2 L=14e-9 M=2 NF=1 LVSEXACTMATCH=1 
Mg0.qpb.mp2 g0.n2 b g0.n1 vcc phpalvt W=2 L=14e-9 M=2 NF=1 LVSEXACTMATCH=1 
Mg0.qpa.mp2 o1 a g0.n2 vcc phpalvt W=2 L=14e-9 M=2 NF=1 LVSEXACTMATCH=1 
Mg0.qna.mn3 o1 a vssx vssx nhpalvt W=3 L=14e-9 M=1 NF=1 LVSEXACTMATCH=1 
Mg0.qnb.mn3 o1 b vssx vssx nhpalvt W=3 L=14e-9 M=1 NF=1 LVSEXACTMATCH=1 
Mg0.qnc.mn3 o1 c vssx vssx nhpalvt W=3 L=14e-9 M=1 NF=1 LVSEXACTMATCH=1 
.ENDS

*  Netlist Is Generated By VMAC Netlister
*  VMAC version : 20.06.26_rc
*  Generated for: hspiceD
*  Generated on: Oct  6 19:51:37 2023
*  Design library name: flat_schematic_lib
*  Design cell name: i0mnor002ac1n16x5
*  Design view name: schematic
*  Library name: flat_schematic_lib
*  Cell name: i0mnor002ac1n16x5
*  View name: schematic
.SUBCKT i0mnor002ac1n16x5 a b o1 vcc vssx 
*  INOUT: vcc vssx
*  INPUT: a b
*  OUTPUT: o1
Mg0.qpb.mp3 g0.n1 b vcc vcc phpasvt W=3 L=14e-9 M=8 NF=1 LVSEXACTMATCH=1 
Mg0.qpa.mp3 o1 a g0.n1 vcc phpasvt W=3 L=14e-9 M=8 NF=1 LVSEXACTMATCH=1 
Mg0.qna.mn2 o1 a vssx vssx nhpasvt W=2 L=14e-9 M=8 NF=1 LVSEXACTMATCH=1 
Mg0.qnb.mn2 o1 b vssx vssx nhpasvt W=2 L=14e-9 M=8 NF=1 LVSEXACTMATCH=1 
.ENDS

*  Netlist Is Generated By VMAC Netlister
*  VMAC version : 20.06.26_rc
*  Generated for: hspiceD
*  Generated on: Oct  6 20:06:42 2023
*  Design library name: flat_schematic_lib
*  Design cell name: i0mnor002ac1n06x5
*  Design view name: schematic
*  Library name: flat_schematic_lib
*  Cell name: i0mnor002ac1n06x5
*  View name: schematic
.SUBCKT i0mnor002ac1n06x5 a b o1 vcc vssx 
*  INOUT: vcc vssx
*  INPUT: a b
*  OUTPUT: o1
Mg0.qpb.mp3 g0.n1 b vcc vcc phpasvt W=3 L=14e-9 M=3 NF=1 LVSEXACTMATCH=1 
Mg0.qpa.mp3 o1 a g0.n1 vcc phpasvt W=3 L=14e-9 M=3 NF=1 LVSEXACTMATCH=1 
Mg0.qna.mn2 o1 a vssx vssx nhpasvt W=2 L=14e-9 M=3 NF=1 LVSEXACTMATCH=1 
Mg0.qnb.mn2 o1 b vssx vssx nhpasvt W=2 L=14e-9 M=3 NF=1 LVSEXACTMATCH=1 
.ENDS

*  Netlist Is Generated By VMAC Netlister
*  VMAC version : 20.06.26_rc
*  Generated for: hspiceD
*  Generated on: Oct  6 19:38:11 2023
*  Design library name: flat_schematic_lib
*  Design cell name: i0mnor002ac1n03x5
*  Design view name: schematic
*  Library name: flat_schematic_lib
*  Cell name: i0mnor002ac1n03x5
*  View name: schematic
.SUBCKT i0mnor002ac1n03x5 a b o1 vcc vssx 
*  INOUT: vcc vssx
*  INPUT: a b
*  OUTPUT: o1
Mg0.qpb.mp2 g0.n1 b vcc vcc phpasvt W=2 L=14e-9 M=2 NF=1 LVSEXACTMATCH=1 
Mg0.qpa.mp2 o1 a g0.n1 vcc phpasvt W=2 L=14e-9 M=2 NF=1 LVSEXACTMATCH=1 
Mg0.qna.mn3 o1 a vssx vssx nhpasvt W=3 L=14e-9 M=1 NF=1 LVSEXACTMATCH=1 
Mg0.qnb.mn3 o1 b vssx vssx nhpasvt W=3 L=14e-9 M=1 NF=1 LVSEXACTMATCH=1 
.ENDS

*  Netlist Is Generated By VMAC Netlister
*  VMAC version : 20.06.26_rc
*  Generated for: hspiceD
*  Generated on: Oct  6 19:55:25 2023
*  Design library name: flat_schematic_lib
*  Design cell name: i0mnor002ac1n02x5
*  Design view name: schematic
*  Library name: flat_schematic_lib
*  Cell name: i0mnor002ac1n02x5
*  View name: schematic
.SUBCKT i0mnor002ac1n02x5 a b o1 vcc vssx 
*  INOUT: vcc vssx
*  INPUT: a b
*  OUTPUT: o1
Mg0.qpb.mp3 g0.n1 b vcc vcc phpasvt W=3 L=14e-9 M=1 NF=1 LVSEXACTMATCH=1 
Mg0.qpa.mp3 o1 a g0.n1 vcc phpasvt W=3 L=14e-9 M=1 NF=1 LVSEXACTMATCH=1 
Mg0.qna.mn2 o1 a vssx vssx nhpasvt W=2 L=14e-9 M=1 NF=1 LVSEXACTMATCH=1 
Mg0.qnb.mn2 o1 b vssx vssx nhpasvt W=2 L=14e-9 M=1 NF=1 LVSEXACTMATCH=1 
.ENDS

*  Netlist Is Generated By VMAC Netlister
*  VMAC version : 20.06.26_rc
*  Generated for: hspiceD
*  Generated on: Oct  6 13:54:27 2023
*  Design library name: flat_schematic_lib
*  Design cell name: i0mnor002ab1n12x5
*  Design view name: schematic
*  Library name: flat_schematic_lib
*  Cell name: i0mnor002ab1n12x5
*  View name: schematic
.SUBCKT i0mnor002ab1n12x5 a b o1 vcc vssx 
*  INOUT: vcc vssx
*  INPUT: a b
*  OUTPUT: o1
Mg0.qpb.mp3 g0.n1 b vcc vcc phpalvt W=3 L=14e-9 M=6 NF=1 LVSEXACTMATCH=1 
Mg0.qpa.mp3 o1 a g0.n1 vcc phpalvt W=3 L=14e-9 M=6 NF=1 LVSEXACTMATCH=1 
Mg0.qna.mn2 o1 a vssx vssx nhpalvt W=2 L=14e-9 M=6 NF=1 LVSEXACTMATCH=1 
Mg0.qnb.mn2 o1 b vssx vssx nhpalvt W=2 L=14e-9 M=6 NF=1 LVSEXACTMATCH=1 
.ENDS

*  Netlist Is Generated By VMAC Netlister
*  VMAC version : 20.06.26_rc
*  Generated for: hspiceD
*  Generated on: Oct  6 20:03:05 2023
*  Design library name: flat_schematic_lib
*  Design cell name: i0mnor002ab1n10x5
*  Design view name: schematic
*  Library name: flat_schematic_lib
*  Cell name: i0mnor002ab1n10x5
*  View name: schematic
.SUBCKT i0mnor002ab1n10x5 a b o1 vcc vssx 
*  INOUT: vcc vssx
*  INPUT: a b
*  OUTPUT: o1
Mg0.qpb.mp3 g0.n1 b vcc vcc phpalvt W=3 L=14e-9 M=5 NF=1 LVSEXACTMATCH=1 
Mg0.qpa.mp3 o1 a g0.n1 vcc phpalvt W=3 L=14e-9 M=5 NF=1 LVSEXACTMATCH=1 
Mg0.qna.mn2 o1 a vssx vssx nhpalvt W=2 L=14e-9 M=5 NF=1 LVSEXACTMATCH=1 
Mg0.qnb.mn2 o1 b vssx vssx nhpalvt W=2 L=14e-9 M=5 NF=1 LVSEXACTMATCH=1 
.ENDS

*  Netlist Is Generated By VMAC Netlister
*  VMAC version : 20.06.26_rc
*  Generated for: hspiceD
*  Generated on: Oct  6 20:06:52 2023
*  Design library name: flat_schematic_lib
*  Design cell name: i0mnor002ab1n06x5
*  Design view name: schematic
*  Library name: flat_schematic_lib
*  Cell name: i0mnor002ab1n06x5
*  View name: schematic
.SUBCKT i0mnor002ab1n06x5 a b o1 vcc vssx 
*  INOUT: vcc vssx
*  INPUT: a b
*  OUTPUT: o1
Mg0.qpb.mp3 g0.n1 b vcc vcc phpalvt W=3 L=14e-9 M=3 NF=1 LVSEXACTMATCH=1 
Mg0.qpa.mp3 o1 a g0.n1 vcc phpalvt W=3 L=14e-9 M=3 NF=1 LVSEXACTMATCH=1 
Mg0.qna.mn2 o1 a vssx vssx nhpalvt W=2 L=14e-9 M=3 NF=1 LVSEXACTMATCH=1 
Mg0.qnb.mn2 o1 b vssx vssx nhpalvt W=2 L=14e-9 M=3 NF=1 LVSEXACTMATCH=1 
.ENDS

*  Netlist Is Generated By VMAC Netlister
*  VMAC version : 20.06.26_rc
*  Generated for: hspiceD
*  Generated on: Oct  6 19:37:57 2023
*  Design library name: flat_schematic_lib
*  Design cell name: i0mnor002ab1n03x5
*  Design view name: schematic
*  Library name: flat_schematic_lib
*  Cell name: i0mnor002ab1n03x5
*  View name: schematic
.SUBCKT i0mnor002ab1n03x5 a b o1 vcc vssx 
*  INOUT: vcc vssx
*  INPUT: a b
*  OUTPUT: o1
Mg0.qpb.mp2 g0.n1 b vcc vcc phpalvt W=2 L=14e-9 M=2 NF=1 LVSEXACTMATCH=1 
Mg0.qpa.mp2 o1 a g0.n1 vcc phpalvt W=2 L=14e-9 M=2 NF=1 LVSEXACTMATCH=1 
Mg0.qna.mn3 o1 a vssx vssx nhpalvt W=3 L=14e-9 M=1 NF=1 LVSEXACTMATCH=1 
Mg0.qnb.mn3 o1 b vssx vssx nhpalvt W=3 L=14e-9 M=1 NF=1 LVSEXACTMATCH=1 
.ENDS

*  Netlist Is Generated By VMAC Netlister
*  VMAC version : 20.06.26_rc
*  Generated for: hspiceD
*  Generated on: Oct  6 17:22:41 2023
*  Design library name: flat_schematic_lib
*  Design cell name: i0mnand04ac1n06x5
*  Design view name: schematic
*  Library name: flat_schematic_lib
*  Cell name: i0mnand04ac1n06x5
*  View name: schematic
.SUBCKT i0mnand04ac1n06x5 a b c d o1 vcc vssx 
*  INOUT: vcc vssx
*  INPUT: a b c d
*  OUTPUT: o1
Mg0.qna.mn3 o1 a g0.n1 vssx nhpasvt W=3 L=14e-9 M=3 NF=1 LVSEXACTMATCH=1 
Mg0.qnb.mn3 g0.n1 b g0.n2 vssx nhpasvt W=3 L=14e-9 M=3 NF=1 LVSEXACTMATCH=1 
Mg0.qnc.mn3 g0.n2 c g0.n3 vssx nhpasvt W=3 L=14e-9 M=3 NF=1 LVSEXACTMATCH=1 
Mg0.qnd.mn3 g0.n3 d vssx vssx nhpasvt W=3 L=14e-9 M=3 NF=1 LVSEXACTMATCH=1 
Mg0.qpc.mp2 o1 c vcc vcc phpasvt W=2 L=14e-9 M=3 NF=1 LVSEXACTMATCH=1 
Mg0.qpb.mp2 o1 b vcc vcc phpasvt W=2 L=14e-9 M=3 NF=1 LVSEXACTMATCH=1 
Mg0.qpd.mp2 o1 d vcc vcc phpasvt W=2 L=14e-9 M=3 NF=1 LVSEXACTMATCH=1 
Mg0.qpa.mp2 o1 a vcc vcc phpasvt W=2 L=14e-9 M=3 NF=1 LVSEXACTMATCH=1 
.ENDS

*  Netlist Is Generated By VMAC Netlister
*  VMAC version : 20.06.26_rc
*  Generated for: hspiceD
*  Generated on: Oct  6 18:54:34 2023
*  Design library name: flat_schematic_lib
*  Design cell name: i0mnand03ac1n06x5
*  Design view name: schematic
*  Library name: flat_schematic_lib
*  Cell name: i0mnand03ac1n06x5
*  View name: schematic
.SUBCKT i0mnand03ac1n06x5 a b c o1 vcc vssx 
*  INOUT: vcc vssx
*  INPUT: a b c
*  OUTPUT: o1
Mg0.qna.mn3 o1 a g0.n1 vssx nhpasvt W=3 L=14e-9 M=3 NF=1 LVSEXACTMATCH=1 
Mg0.qnb.mn3 g0.n1 b g0.n2 vssx nhpasvt W=3 L=14e-9 M=3 NF=1 LVSEXACTMATCH=1 
Mg0.qnc.mn3 g0.n2 c vssx vssx nhpasvt W=3 L=14e-9 M=3 NF=1 LVSEXACTMATCH=1 
Mg0.qpa.mp2 o1 a vcc vcc phpasvt W=2 L=14e-9 M=3 NF=1 LVSEXACTMATCH=1 
Mg0.qpb.mp2 o1 b vcc vcc phpasvt W=2 L=14e-9 M=3 NF=1 LVSEXACTMATCH=1 
Mg0.qpc.mp2 o1 c vcc vcc phpasvt W=2 L=14e-9 M=3 NF=1 LVSEXACTMATCH=1 
.ENDS

*  Netlist Is Generated By VMAC Netlister
*  VMAC version : 20.06.26_rc
*  Generated for: hspiceD
*  Generated on: Oct  6 12:45:00 2023
*  Design library name: flat_schematic_lib
*  Design cell name: i0mnand03ac1n02x5
*  Design view name: schematic
*  Library name: flat_schematic_lib
*  Cell name: i0mnand03ac1n02x5
*  View name: schematic
.SUBCKT i0mnand03ac1n02x5 a b c o1 vcc vssx 
*  INOUT: vcc vssx
*  INPUT: a b c
*  OUTPUT: o1
Mg0.qna.mn3 o1 a g0.n1 vssx nhpasvt W=3 L=14e-9 M=1 NF=1 LVSEXACTMATCH=1 
Mg0.qnb.mn3 g0.n1 b g0.n2 vssx nhpasvt W=3 L=14e-9 M=1 NF=1 LVSEXACTMATCH=1 
Mg0.qnc.mn3 g0.n2 c vssx vssx nhpasvt W=3 L=14e-9 M=1 NF=1 LVSEXACTMATCH=1 
Mg0.qpa.mp2 o1 a vcc vcc phpasvt W=2 L=14e-9 M=1 NF=1 LVSEXACTMATCH=1 
Mg0.qpb.mp2 o1 b vcc vcc phpasvt W=2 L=14e-9 M=1 NF=1 LVSEXACTMATCH=1 
Mg0.qpc.mp2 o1 c vcc vcc phpasvt W=2 L=14e-9 M=1 NF=1 LVSEXACTMATCH=1 
.ENDS

*  Netlist Is Generated By VMAC Netlister
*  VMAC version : 20.06.26_rc
*  Generated for: hspiceD
*  Generated on: Oct  6 18:54:55 2023
*  Design library name: flat_schematic_lib
*  Design cell name: i0mnand03ab1n06x5
*  Design view name: schematic
*  Library name: flat_schematic_lib
*  Cell name: i0mnand03ab1n06x5
*  View name: schematic
.SUBCKT i0mnand03ab1n06x5 a b c o1 vcc vssx 
*  INOUT: vcc vssx
*  INPUT: a b c
*  OUTPUT: o1
Mg0.qna.mn3 o1 a g0.n1 vssx nhpalvt W=3 L=14e-9 M=3 NF=1 LVSEXACTMATCH=1 
Mg0.qnb.mn3 g0.n1 b g0.n2 vssx nhpalvt W=3 L=14e-9 M=3 NF=1 LVSEXACTMATCH=1 
Mg0.qnc.mn3 g0.n2 c vssx vssx nhpalvt W=3 L=14e-9 M=3 NF=1 LVSEXACTMATCH=1 
Mg0.qpa.mp2 o1 a vcc vcc phpalvt W=2 L=14e-9 M=3 NF=1 LVSEXACTMATCH=1 
Mg0.qpb.mp2 o1 b vcc vcc phpalvt W=2 L=14e-9 M=3 NF=1 LVSEXACTMATCH=1 
Mg0.qpc.mp2 o1 c vcc vcc phpalvt W=2 L=14e-9 M=3 NF=1 LVSEXACTMATCH=1 
.ENDS

*  Netlist Is Generated By VMAC Netlister
*  VMAC version : 20.06.26_rc
*  Generated for: hspiceD
*  Generated on: Oct  6 19:53:48 2023
*  Design library name: flat_schematic_lib
*  Design cell name: i0mnand03ab1n03x5
*  Design view name: schematic
*  Library name: flat_schematic_lib
*  Cell name: i0mnand03ab1n03x5
*  View name: schematic
.SUBCKT i0mnand03ab1n03x5 a b c o1 vcc vssx 
*  INOUT: vcc vssx
*  INPUT: a b c
*  OUTPUT: o1
Mg0.qna.mn2 o1 a g0.n1 vssx nhpalvt W=2 L=14e-9 M=2 NF=1 LVSEXACTMATCH=1 
Mg0.qnb.mn2 g0.n1 b g0.n2 vssx nhpalvt W=2 L=14e-9 M=2 NF=1 LVSEXACTMATCH=1 
Mg0.qnc.mn2 g0.n2 c vssx vssx nhpalvt W=2 L=14e-9 M=2 NF=1 LVSEXACTMATCH=1 
Mg0.qpa.mp3 o1 a vcc vcc phpalvt W=3 L=14e-9 M=1 NF=1 LVSEXACTMATCH=1 
Mg0.qpb.mp3 o1 b vcc vcc phpalvt W=3 L=14e-9 M=1 NF=1 LVSEXACTMATCH=1 
Mg0.qpc.mp3 o1 c vcc vcc phpalvt W=3 L=14e-9 M=1 NF=1 LVSEXACTMATCH=1 
.ENDS

*  Netlist Is Generated By VMAC Netlister
*  VMAC version : 20.06.26_rc
*  Generated for: hspiceD
*  Generated on: Oct  6 13:16:37 2023
*  Design library name: flat_schematic_lib
*  Design cell name: i0mnand02ac1n16x5
*  Design view name: schematic
*  Library name: flat_schematic_lib
*  Cell name: i0mnand02ac1n16x5
*  View name: schematic
.SUBCKT i0mnand02ac1n16x5 a b o1 vcc vssx 
*  INOUT: vcc vssx
*  INPUT: a b
*  OUTPUT: o1
Mg0.qna.mn3 o1 a g0.n1 vssx nhpasvt W=3 L=14e-9 M=8 NF=1 LVSEXACTMATCH=1 
Mg0.qnb.mn3 g0.n1 b vssx vssx nhpasvt W=3 L=14e-9 M=8 NF=1 LVSEXACTMATCH=1 
Mg0.qpa.mp2 o1 a vcc vcc phpasvt W=2 L=14e-9 M=8 NF=1 LVSEXACTMATCH=1 
Mg0.qpb.mp2 o1 b vcc vcc phpasvt W=2 L=14e-9 M=8 NF=1 LVSEXACTMATCH=1 
.ENDS

*  Netlist Is Generated By VMAC Netlister
*  VMAC version : 20.06.26_rc
*  Generated for: hspiceD
*  Generated on: Oct  6 19:47:45 2023
*  Design library name: flat_schematic_lib
*  Design cell name: i0mnand02ac1n10x5
*  Design view name: schematic
*  Library name: flat_schematic_lib
*  Cell name: i0mnand02ac1n10x5
*  View name: schematic
.SUBCKT i0mnand02ac1n10x5 a b o1 vcc vssx 
*  INOUT: vcc vssx
*  INPUT: a b
*  OUTPUT: o1
Mg0.qna.mn3 o1 a g0.n1 vssx nhpasvt W=3 L=14e-9 M=5 NF=1 LVSEXACTMATCH=1 
Mg0.qnb.mn3 g0.n1 b vssx vssx nhpasvt W=3 L=14e-9 M=5 NF=1 LVSEXACTMATCH=1 
Mg0.qpa.mp2 o1 a vcc vcc phpasvt W=2 L=14e-9 M=5 NF=1 LVSEXACTMATCH=1 
Mg0.qpb.mp2 o1 b vcc vcc phpasvt W=2 L=14e-9 M=5 NF=1 LVSEXACTMATCH=1 
.ENDS

*  Netlist Is Generated By VMAC Netlister
*  VMAC version : 20.06.26_rc
*  Generated for: hspiceD
*  Generated on: Oct  6 12:22:35 2023
*  Design library name: flat_schematic_lib
*  Design cell name: i0mnand02ac1n03x5
*  Design view name: schematic
*  Library name: flat_schematic_lib
*  Cell name: i0mnand02ac1n03x5
*  View name: schematic
.SUBCKT i0mnand02ac1n03x5 a b o1 vcc vssx 
*  INOUT: vcc vssx
*  INPUT: a b
*  OUTPUT: o1
Mg0.qna.mn2 o1 a g0.n1 vssx nhpasvt W=2 L=14e-9 M=2 NF=1 LVSEXACTMATCH=1 
Mg0.qnb.mn2 g0.n1 b vssx vssx nhpasvt W=2 L=14e-9 M=2 NF=1 LVSEXACTMATCH=1 
Mg0.qpa.mp3 o1 a vcc vcc phpasvt W=3 L=14e-9 M=1 NF=1 LVSEXACTMATCH=1 
Mg0.qpb.mp3 o1 b vcc vcc phpasvt W=3 L=14e-9 M=1 NF=1 LVSEXACTMATCH=1 
.ENDS

*  Netlist Is Generated By VMAC Netlister
*  VMAC version : 20.06.26_rc
*  Generated for: hspiceD
*  Generated on: Oct  6 19:55:22 2023
*  Design library name: flat_schematic_lib
*  Design cell name: i0mnand02ac1n02x5
*  Design view name: schematic
*  Library name: flat_schematic_lib
*  Cell name: i0mnand02ac1n02x5
*  View name: schematic
.SUBCKT i0mnand02ac1n02x5 a b o1 vcc vssx 
*  INOUT: vcc vssx
*  INPUT: a b
*  OUTPUT: o1
Mg0.qna.mn3 o1 a g0.n1 vssx nhpasvt W=3 L=14e-9 M=1 NF=1 LVSEXACTMATCH=1 
Mg0.qnb.mn3 g0.n1 b vssx vssx nhpasvt W=3 L=14e-9 M=1 NF=1 LVSEXACTMATCH=1 
Mg0.qpa.mp2 o1 a vcc vcc phpasvt W=2 L=14e-9 M=1 NF=1 LVSEXACTMATCH=1 
Mg0.qpb.mp2 o1 b vcc vcc phpasvt W=2 L=14e-9 M=1 NF=1 LVSEXACTMATCH=1 
.ENDS

*  Netlist Is Generated By VMAC Netlister
*  VMAC version : 20.06.26_rc
*  Generated for: hspiceD
*  Generated on: Oct  6 18:58:40 2023
*  Design library name: flat_schematic_lib
*  Design cell name: i0mnand02ab1n12x5
*  Design view name: schematic
*  Library name: flat_schematic_lib
*  Cell name: i0mnand02ab1n12x5
*  View name: schematic
.SUBCKT i0mnand02ab1n12x5 a b o1 vcc vssx 
*  INOUT: vcc vssx
*  INPUT: a b
*  OUTPUT: o1
Mg0.qna.mn3 o1 a g0.n1 vssx nhpalvt W=3 L=14e-9 M=6 NF=1 LVSEXACTMATCH=1 
Mg0.qnb.mn3 g0.n1 b vssx vssx nhpalvt W=3 L=14e-9 M=6 NF=1 LVSEXACTMATCH=1 
Mg0.qpa.mp2 o1 a vcc vcc phpalvt W=2 L=14e-9 M=6 NF=1 LVSEXACTMATCH=1 
Mg0.qpb.mp2 o1 b vcc vcc phpalvt W=2 L=14e-9 M=6 NF=1 LVSEXACTMATCH=1 
.ENDS

*  Netlist Is Generated By VMAC Netlister
*  VMAC version : 20.06.26_rc
*  Generated for: hspiceD
*  Generated on: Oct  6 19:47:20 2023
*  Design library name: flat_schematic_lib
*  Design cell name: i0mnand02ab1n10x5
*  Design view name: schematic
*  Library name: flat_schematic_lib
*  Cell name: i0mnand02ab1n10x5
*  View name: schematic
.SUBCKT i0mnand02ab1n10x5 a b o1 vcc vssx 
*  INOUT: vcc vssx
*  INPUT: a b
*  OUTPUT: o1
Mg0.qna.mn3 o1 a g0.n1 vssx nhpalvt W=3 L=14e-9 M=5 NF=1 LVSEXACTMATCH=1 
Mg0.qnb.mn3 g0.n1 b vssx vssx nhpalvt W=3 L=14e-9 M=5 NF=1 LVSEXACTMATCH=1 
Mg0.qpa.mp2 o1 a vcc vcc phpalvt W=2 L=14e-9 M=5 NF=1 LVSEXACTMATCH=1 
Mg0.qpb.mp2 o1 b vcc vcc phpalvt W=2 L=14e-9 M=5 NF=1 LVSEXACTMATCH=1 
.ENDS

*  Netlist Is Generated By VMAC Netlister
*  VMAC version : 20.06.26_rc
*  Generated for: hspiceD
*  Generated on: Oct  6 13:42:59 2023
*  Design library name: flat_schematic_lib
*  Design cell name: i0mnand02ab1n06x5
*  Design view name: schematic
*  Library name: flat_schematic_lib
*  Cell name: i0mnand02ab1n06x5
*  View name: schematic
.SUBCKT i0mnand02ab1n06x5 a b o1 vcc vssx 
*  INOUT: vcc vssx
*  INPUT: a b
*  OUTPUT: o1
Mg0.qna.mn3 o1 a g0.n1 vssx nhpalvt W=3 L=14e-9 M=3 NF=1 LVSEXACTMATCH=1 
Mg0.qnb.mn3 g0.n1 b vssx vssx nhpalvt W=3 L=14e-9 M=3 NF=1 LVSEXACTMATCH=1 
Mg0.qpa.mp2 o1 a vcc vcc phpalvt W=2 L=14e-9 M=3 NF=1 LVSEXACTMATCH=1 
Mg0.qpb.mp2 o1 b vcc vcc phpalvt W=2 L=14e-9 M=3 NF=1 LVSEXACTMATCH=1 
.ENDS

*  Netlist Is Generated By VMAC Netlister
*  VMAC version : 20.06.26_rc
*  Generated for: hspiceD
*  Generated on: Oct  6 12:22:33 2023
*  Design library name: flat_schematic_lib
*  Design cell name: i0mnand02ab1n03x5
*  Design view name: schematic
*  Library name: flat_schematic_lib
*  Cell name: i0mnand02ab1n03x5
*  View name: schematic
.SUBCKT i0mnand02ab1n03x5 a b o1 vcc vssx 
*  INOUT: vcc vssx
*  INPUT: a b
*  OUTPUT: o1
Mg0.qna.mn2 o1 a g0.n1 vssx nhpalvt W=2 L=14e-9 M=2 NF=1 LVSEXACTMATCH=1 
Mg0.qnb.mn2 g0.n1 b vssx vssx nhpalvt W=2 L=14e-9 M=2 NF=1 LVSEXACTMATCH=1 
Mg0.qpa.mp3 o1 a vcc vcc phpalvt W=3 L=14e-9 M=1 NF=1 LVSEXACTMATCH=1 
Mg0.qpb.mp3 o1 b vcc vcc phpalvt W=3 L=14e-9 M=1 NF=1 LVSEXACTMATCH=1 
.ENDS

*  Netlist Is Generated By VMAC Netlister
*  VMAC version : 20.06.26_rc
*  Generated for: hspiceD
*  Generated on: Oct  6 19:55:24 2023
*  Design library name: flat_schematic_lib
*  Design cell name: i0mnand02ab1n02x5
*  Design view name: schematic
*  Library name: flat_schematic_lib
*  Cell name: i0mnand02ab1n02x5
*  View name: schematic
.SUBCKT i0mnand02ab1n02x5 a b o1 vcc vssx 
*  INOUT: vcc vssx
*  INPUT: a b
*  OUTPUT: o1
Mg0.qna.mn3 o1 a g0.n1 vssx nhpalvt W=3 L=14e-9 M=1 NF=1 LVSEXACTMATCH=1 
Mg0.qnb.mn3 g0.n1 b vssx vssx nhpalvt W=3 L=14e-9 M=1 NF=1 LVSEXACTMATCH=1 
Mg0.qpa.mp2 o1 a vcc vcc phpalvt W=2 L=14e-9 M=1 NF=1 LVSEXACTMATCH=1 
Mg0.qpb.mp2 o1 b vcc vcc phpalvt W=2 L=14e-9 M=1 NF=1 LVSEXACTMATCH=1 
.ENDS

*  Netlist Is Generated By VMAC Netlister
*  VMAC version : 20.06.26_rc
*  Generated for: hspiceD
*  Generated on: Oct  6 19:38:11 2023
*  Design library name: flat_schematic_lib
*  Design cell name: i0mlun090ac1n03x5
*  Design view name: schematic
*  Library name: flat_schematic_lib
*  Cell name: i0mlun090ac1n03x5
*  View name: schematic
.SUBCKT i0mlun090ac1n03x5 clkb d ob vcc vssx 
*  INOUT: vcc vssx
*  INPUT: clkb d
*  OUTPUT: ob
Mg3lp1.qnck.mn2 ob clkb g3lp1.n2 vssx nhpasvt W=2 L=14e-9 M=1 NF=1 LVSEXACTMATCH=1 
Mg3lp1.qnd.mn2 g3lp1.n2 nk2 vssx vssx nhpasvt W=2 L=14e-9 M=1 NF=1 LVSEXACTMATCH=1 
Mg3lp1.qpckb.mp2 ob nc1 g3lp1.n1 vcc phpasvt W=2 L=14e-9 M=1 NF=1 LVSEXACTMATCH=1 
Mg3lp1.qpd.mp2 g3lp1.n1 nk2 vcc vcc phpasvt W=2 L=14e-9 M=1 NF=1 LVSEXACTMATCH=1 
Mg1lp1.qpsb.mp3 ob clkb n3 vcc phpasvt W=3 L=14e-9 M=1 NF=1 LVSEXACTMATCH=1 
Mg1lp1.qns.mn3 ob nc1 n3 vssx nhpasvt W=3 L=14e-9 M=1 NF=1 LVSEXACTMATCH=1 
Mg1.qpa.mp2 nc1 clkb vcc vcc phpalvt W=2 L=14e-9 M=1 NF=1 LVSEXACTMATCH=1 
Mg1.qna.mn2 nc1 clkb vssx vssx nhpalvt W=2 L=14e-9 M=1 NF=1 LVSEXACTMATCH=1 
Mg2.qpa.mp3 n3 d vcc vcc phpasvt W=3 L=14e-9 M=2 NF=1 LVSEXACTMATCH=1 
Mg2.qna.mn3 n3 d vssx vssx nhpasvt W=3 L=14e-9 M=2 NF=1 LVSEXACTMATCH=1 
Mg2lp1.qpa.mp2 nk2 ob vcc vcc phpasvt W=2 L=14e-9 M=1 NF=1 LVSEXACTMATCH=1 
Mg2lp1.qna.mn2 nk2 ob vssx vssx nhpasvt W=2 L=14e-9 M=1 NF=1 LVSEXACTMATCH=1 
.ENDS

*  Netlist Is Generated By VMAC Netlister
*  VMAC version : 20.06.26_rc
*  Generated for: hspiceD
*  Generated on: Oct  6 19:53:13 2023
*  Design library name: flat_schematic_lib
*  Design cell name: i0mlun090ac1d06x5
*  Design view name: schematic
*  Library name: flat_schematic_lib
*  Cell name: i0mlun090ac1d06x5
*  View name: schematic
.SUBCKT i0mlun090ac1d06x5 clkb d ob vcc vssx 
*  INOUT: vcc vssx
*  INPUT: clkb d
*  OUTPUT: ob
Mg3lp1.qnck.mn3 ob clkb g3lp1.n2 vssx nhpasvt W=3 L=14e-9 M=1 NF=1 LVSEXACTMATCH=1 
Mg3lp1.qnd.mn3 g3lp1.n2 nk2 vssx vssx nhpasvt W=3 L=14e-9 M=1 NF=1 LVSEXACTMATCH=1 
Mg3lp1.qpckb.mp3 ob nc1 g3lp1.n1 vcc phpasvt W=3 L=14e-9 M=1 NF=1 LVSEXACTMATCH=1 
Mg3lp1.qpd.mp3 g3lp1.n1 nk2 vcc vcc phpasvt W=3 L=14e-9 M=1 NF=1 LVSEXACTMATCH=1 
Mg1lp1.qpsb.mp3 ob clkb n3 vcc phpasvt W=3 L=14e-9 M=2 NF=1 LVSEXACTMATCH=1 
Mg1lp1.qns.mn3 ob nc1 n3 vssx nhpasvt W=3 L=14e-9 M=2 NF=1 LVSEXACTMATCH=1 
Mg1.qpa.mp2 nc1 clkb vcc vcc phpalvt W=2 L=14e-9 M=1 NF=1 LVSEXACTMATCH=1 
Mg1.qna.mn2 nc1 clkb vssx vssx nhpalvt W=2 L=14e-9 M=1 NF=1 LVSEXACTMATCH=1 
Mg2.qpa.mp3 n3 d vcc vcc phpasvt W=3 L=14e-9 M=4 NF=1 LVSEXACTMATCH=1 
Mg2.qna.mn3 n3 d vssx vssx nhpasvt W=3 L=14e-9 M=4 NF=1 LVSEXACTMATCH=1 
Mg2lp1.qpa.mp2 nk2 ob vcc vcc phpasvt W=2 L=14e-9 M=1 NF=1 LVSEXACTMATCH=1 
Mg2lp1.qna.mn2 nk2 ob vssx vssx nhpasvt W=2 L=14e-9 M=1 NF=1 LVSEXACTMATCH=1 
.ENDS

*  Netlist Is Generated By VMAC Netlister
*  VMAC version : 20.06.26_rc
*  Generated for: hspiceD
*  Generated on: Oct  6 19:53:02 2023
*  Design library name: flat_schematic_lib
*  Design cell name: i0mlun090ab1d06x5
*  Design view name: schematic
*  Library name: flat_schematic_lib
*  Cell name: i0mlun090ab1d06x5