* Synopsys Nettran: RHEL64 S-2021.06-SP3-2.7200131 2022/01/06 
* Created:  1/18/2023   0:44   
* Options: -clf /p/mpg/proc/projects/i78lncip/central_runs/lorf/samanoor/dcchunkrotd/logical_lvs/dcchunkrotd/netlists/spice/dcchunkrotd.sp.icv_nettran.clf 

*   Netlist Is Generated By VMAC Netlister
*   VMAC version : 20.06.26_rc
*   Generated for: hspiceD
*   Generated on: May 23 14:51:25 2022
*   Design library name: flat_schematic_lib
*   Design cell name: i0mand002ab1n12x5
*   Design view name: schematic
*   Library name: flat_schematic_lib
*   Cell name: i0mand002ab1n12x5
*   View name: schematic
.SUBCKT i0mand002ab1n12x5 a b o vcc vssx 
*   INOUT: vcc vssx
*   INPUT: a b
*   OUTPUT: o
Mg101.qna.mn3 o n1 vssx vssx nhpalvt W=3 L=14e-9 M=4 NF=1 LVSEXACTMATCH=1 
Mg101.qpa.mp3 o n1 vcc vcc phpalvt W=3 L=14e-9 M=4 NF=1 LVSEXACTMATCH=1 
Mg1.qna.mn3 n1 a g1.n1 vssx nhpalvt W=3 L=14e-9 M=2 NF=1 LVSEXACTMATCH=1 
Mg1.qnb.mn3 g1.n1 b vssx vssx nhpalvt W=3 L=14e-9 M=2 NF=1 LVSEXACTMATCH=1 
Mg1.qpa.mp3 n1 a vcc vcc phpalvt W=3 L=14e-9 M=2 NF=1 LVSEXACTMATCH=1 
Mg1.qpb.mp3 n1 b vcc vcc phpalvt W=3 L=14e-9 M=2 NF=1 LVSEXACTMATCH=1 
.ENDS

*   Netlist Is Generated By VMAC Netlister
*   VMAC version : 20.06.26_rc
*   Generated for: hspiceD
*   Generated on: May 23 20:07:19 2022
*   Design library name: flat_schematic_lib
*   Design cell name: i0mand002ab1n09x5
*   Design view name: schematic
*   Library name: flat_schematic_lib
*   Cell name: i0mand002ab1n09x5
*   View name: schematic
.SUBCKT i0mand002ab1n09x5 a b o vcc vssx 
*   INOUT: vcc vssx
*   INPUT: a b
*   OUTPUT: o
Mg101.qna.mn3 o n1 vssx vssx nhpalvt W=3 L=14e-9 M=3 NF=1 LVSEXACTMATCH=1 
Mg101.qpa.mp3 o n1 vcc vcc phpalvt W=3 L=14e-9 M=3 NF=1 LVSEXACTMATCH=1 
Mg1.qna.mn3 n1 a g1.n1 vssx nhpalvt W=3 L=14e-9 M=1 NF=1 LVSEXACTMATCH=1 
Mg1.qnb.mn3 g1.n1 b vssx vssx nhpalvt W=3 L=14e-9 M=1 NF=1 LVSEXACTMATCH=1 
Mg1.qpa.mp3 n1 a vcc vcc phpalvt W=3 L=14e-9 M=1 NF=1 LVSEXACTMATCH=1 
Mg1.qpb.mp3 n1 b vcc vcc phpalvt W=3 L=14e-9 M=1 NF=1 LVSEXACTMATCH=1 
.ENDS

*   Netlist Is Generated By VMAC Netlister
*   VMAC version : 20.06.26_rc
*   Generated for: hspiceD
*   Generated on: Jun 11 22:22:51 2022
*   Design library name: flat_schematic_lib
*   Design cell name: i0maoi022ab1n03x5
*   Design view name: schematic
*   Library name: flat_schematic_lib
*   Cell name: i0maoi022ab1n03x5
*   View name: schematic
.SUBCKT i0maoi022ab1n03x5 a b c d o1 vcc vssx 
*   INOUT: vcc vssx
*   INPUT: a b c d
*   OUTPUT: o1
Mqnd1.mn3 n3 d vssx vssx nhpalvt W=3 L=14e-9 M=1 NF=1 LVSEXACTMATCH=1 
Mqnb1.mn3 n2 b vssx vssx nhpalvt W=3 L=14e-9 M=1 NF=1 LVSEXACTMATCH=1 
Mqna1.mn3 o1 a n2 vssx nhpalvt W=3 L=14e-9 M=1 NF=1 LVSEXACTMATCH=1 
Mqnc1.mn3 o1 c n3 vssx nhpalvt W=3 L=14e-9 M=1 NF=1 LVSEXACTMATCH=1 
Mqpa1.mp3 o1 a n1 vcc phpalvt W=3 L=14e-9 M=1 NF=1 LVSEXACTMATCH=1 
Mqpc1.mp3 n1 c vcc vcc phpalvt W=3 L=14e-9 M=1 NF=1 LVSEXACTMATCH=1 
Mqpd1.mp3 n1 d vcc vcc phpalvt W=3 L=14e-9 M=1 NF=1 LVSEXACTMATCH=1 
Mqpb1.mp3 o1 b n1 vcc phpalvt W=3 L=14e-9 M=1 NF=1 LVSEXACTMATCH=1 
.ENDS

*   Netlist Is Generated By VMAC Netlister
*   VMAC version : 20.06.26_rc
*   Generated for: hspiceD
*   Generated on: Jun 11 11:40:57 2022
*   Design library name: flat_schematic_lib
*   Design cell name: i0maoi022ab1n06x5
*   Design view name: schematic
*   Library name: flat_schematic_lib
*   Cell name: i0maoi022ab1n06x5
*   View name: schematic
.SUBCKT i0maoi022ab1n06x5 a b c d o1 vcc vssx 
*   INOUT: vcc vssx
*   INPUT: a b c d
*   OUTPUT: o1
Mqnd1.mn3 n3 d vssx vssx nhpalvt W=3 L=14e-9 M=2 NF=1 LVSEXACTMATCH=1 
Mqnb1.mn3 n2 b vssx vssx nhpalvt W=3 L=14e-9 M=2 NF=1 LVSEXACTMATCH=1 
Mqna1.mn3 o1 a n2 vssx nhpalvt W=3 L=14e-9 M=2 NF=1 LVSEXACTMATCH=1 
Mqnc1.mn3 o1 c n3 vssx nhpalvt W=3 L=14e-9 M=2 NF=1 LVSEXACTMATCH=1 
Mqpa1.mp3 o1 a n1 vcc phpalvt W=3 L=14e-9 M=2 NF=1 LVSEXACTMATCH=1 
Mqpc1.mp3 n1 c vcc vcc phpalvt W=3 L=14e-9 M=2 NF=1 LVSEXACTMATCH=1 
Mqpd1.mp3 n1 d vcc vcc phpalvt W=3 L=14e-9 M=2 NF=1 LVSEXACTMATCH=1 
Mqpb1.mp3 o1 b n1 vcc phpalvt W=3 L=14e-9 M=2 NF=1 LVSEXACTMATCH=1 
.ENDS

*   Netlist Is Generated By VMAC Netlister
*   VMAC version : 20.06.26_rc
*   Generated for: hspiceD
*   Generated on: Jun 11 12:23:53 2022
*   Design library name: flat_schematic_lib
*   Design cell name: i0maoi022ab1n09x5
*   Design view name: schematic
*   Library name: flat_schematic_lib
*   Cell name: i0maoi022ab1n09x5
*   View name: schematic
.SUBCKT i0maoi022ab1n09x5 a b c d o1 vcc vssx 
*   INOUT: vcc vssx
*   INPUT: a b c d
*   OUTPUT: o1
Mqnd1.mn3 n3 d vssx vssx nhpalvt W=3 L=14e-9 M=3 NF=1 LVSEXACTMATCH=1 
Mqnb1.mn3 n2 b vssx vssx nhpalvt W=3 L=14e-9 M=3 NF=1 LVSEXACTMATCH=1 
Mqna1.mn3 o1 a n2 vssx nhpalvt W=3 L=14e-9 M=3 NF=1 LVSEXACTMATCH=1 
Mqnc1.mn3 o1 c n3 vssx nhpalvt W=3 L=14e-9 M=3 NF=1 LVSEXACTMATCH=1 
Mqpa1.mp3 o1 a n1 vcc phpalvt W=3 L=14e-9 M=3 NF=1 LVSEXACTMATCH=1 
Mqpc1.mp3 n1 c vcc vcc phpalvt W=3 L=14e-9 M=3 NF=1 LVSEXACTMATCH=1 
Mqpd1.mp3 n1 d vcc vcc phpalvt W=3 L=14e-9 M=3 NF=1 LVSEXACTMATCH=1 
Mqpb1.mp3 o1 b n1 vcc phpalvt W=3 L=14e-9 M=3 NF=1 LVSEXACTMATCH=1 
.ENDS

*   Netlist Is Generated By VMAC Netlister
*   VMAC version : 20.06.26_rc
*   Generated for: hspiceD
*   Generated on: Jun 11 12:24:59 2022
*   Design library name: flat_schematic_lib
*   Design cell name: i0mbfn000ab1n21x5
*   Design view name: schematic
*   Library name: flat_schematic_lib
*   Cell name: i0mbfn000ab1n21x5
*   View name: schematic
.SUBCKT i0mbfn000ab1n21x5 a o vcc vssx 
*   INOUT: vcc vssx
*   INPUT: a
*   OUTPUT: o
Mg0.qpa.mp3 n1 a vcc vcc phpalvt W=3 L=14e-9 M=2 NF=1 LVSEXACTMATCH=1 
Mg0.qna.mn3 n1 a vssx vssx nhpalvt W=3 L=14e-9 M=2 NF=1 LVSEXACTMATCH=1 
Mg101.qpa.mp3 o n1 vcc vcc phpalvt W=3 L=14e-9 M=7 NF=1 LVSEXACTMATCH=1 
Mg101.qna.mn3 o n1 vssx vssx nhpalvt W=3 L=14e-9 M=7 NF=1 LVSEXACTMATCH=1 
.ENDS

*   Netlist Is Generated By VMAC Netlister
*   VMAC version : 20.06.26_rc
*   Generated for: hspiceD
*   Generated on: Jun 11 14:18:53 2022
*   Design library name: flat_schematic_lib
*   Design cell name: i0mbfn000ab1n03x5
*   Design view name: schematic
*   Library name: flat_schematic_lib
*   Cell name: i0mbfn000ab1n03x5
*   View name: schematic
.SUBCKT i0mbfn000ab1n03x5 a o vcc vssx 
*   INOUT: vcc vssx
*   INPUT: a
*   OUTPUT: o
Mg0.qpa.mp2 n1 a vcc vcc phpalvt W=2 L=14e-9 M=1 NF=1 LVSEXACTMATCH=1 
Mg0.qna.mn2 n1 a vssx vssx nhpalvt W=2 L=14e-9 M=1 NF=1 LVSEXACTMATCH=1 
Mg101.qpa.mp3 o n1 vcc vcc phpalvt W=3 L=14e-9 M=1 NF=1 LVSEXACTMATCH=1 
Mg101.qna.mn3 o n1 vssx vssx nhpalvt W=3 L=14e-9 M=1 NF=1 LVSEXACTMATCH=1 
.ENDS

*   Netlist Is Generated By VMAC Netlister
*   VMAC version : 20.06.26_rc
*   Generated for: hspiceD
*   Generated on: Jun 12 00:33:36 2022
*   Design library name: flat_schematic_lib
*   Design cell name: i0mbfn000ab1n18x5
*   Design view name: schematic
*   Library name: flat_schematic_lib
*   Cell name: i0mbfn000ab1n18x5
*   View name: schematic
.SUBCKT i0mbfn000ab1n18x5 a o vcc vssx 
*   INOUT: vcc vssx
*   INPUT: a
*   OUTPUT: o
Mg0.qpa.mp3 n1 a vcc vcc phpalvt W=3 L=14e-9 M=2 NF=1 LVSEXACTMATCH=1 
Mg0.qna.mn3 n1 a vssx vssx nhpalvt W=3 L=14e-9 M=2 NF=1 LVSEXACTMATCH=1 
Mg101.qpa.mp3 o n1 vcc vcc phpalvt W=3 L=14e-9 M=6 NF=1 LVSEXACTMATCH=1 
Mg101.qna.mn3 o n1 vssx vssx nhpalvt W=3 L=14e-9 M=6 NF=1 LVSEXACTMATCH=1 
.ENDS

*   Netlist Is Generated By VMAC Netlister
*   VMAC version : 20.06.26_rc
*   Generated for: hspiceD
*   Generated on: Jun 11 17:05:19 2022
*   Design library name: flat_schematic_lib
*   Design cell name: i0mbfn000ab1n09x5
*   Design view name: schematic
*   Library name: flat_schematic_lib
*   Cell name: i0mbfn000ab1n09x5
*   View name: schematic
.SUBCKT i0mbfn000ab1n09x5 a o vcc vssx 
*   INOUT: vcc vssx
*   INPUT: a
*   OUTPUT: o
Mg0.qpa.mp3 n1 a vcc vcc phpalvt W=3 L=14e-9 M=1 NF=1 LVSEXACTMATCH=1 
Mg0.qna.mn3 n1 a vssx vssx nhpalvt W=3 L=14e-9 M=1 NF=1 LVSEXACTMATCH=1 
Mg101.qpa.mp3 o n1 vcc vcc phpalvt W=3 L=14e-9 M=3 NF=1 LVSEXACTMATCH=1 
Mg101.qna.mn3 o n1 vssx vssx nhpalvt W=3 L=14e-9 M=3 NF=1 LVSEXACTMATCH=1 
.ENDS

*   Netlist Is Generated By VMAC Netlister
*   VMAC version : 20.06.26_rc
*   Generated for: hspiceD
*   Generated on: Jun 11 10:01:18 2022
*   Design library name: flat_schematic_lib
*   Design cell name: i0minv000ab1n21x5
*   Design view name: schematic
*   Library name: flat_schematic_lib
*   Cell name: i0minv000ab1n21x5
*   View name: schematic
.SUBCKT i0minv000ab1n21x5 a o1 vcc vssx 
*   INOUT: vcc vssx
*   INPUT: a
*   OUTPUT: o1
Mg101.qna.mn3 o1 a vssx vssx nhpalvt W=3 L=14e-9 M=7 NF=1 LVSEXACTMATCH=1 
Mg101.qpa.mp3 o1 a vcc vcc phpalvt W=3 L=14e-9 M=7 NF=1 LVSEXACTMATCH=1 
.ENDS

*   Netlist Is Generated By VMAC Netlister
*   VMAC version : 20.06.26_rc
*   Generated for: hspiceD
*   Generated on: Jun 11 19:37:12 2022
*   Design library name: flat_schematic_lib
*   Design cell name: i0minv000ab1n06x5
*   Design view name: schematic
*   Library name: flat_schematic_lib
*   Cell name: i0minv000ab1n06x5
*   View name: schematic
.SUBCKT i0minv000ab1n06x5 a o1 vcc vssx 
*   INOUT: vcc vssx
*   INPUT: a
*   OUTPUT: o1
Mg101.qna.mn3 o1 a vssx vssx nhpalvt W=3 L=14e-9 M=2 NF=1 LVSEXACTMATCH=1 
Mg101.qpa.mp3 o1 a vcc vcc phpalvt W=3 L=14e-9 M=2 NF=1 LVSEXACTMATCH=1 
.ENDS

*   Netlist Is Generated By VMAC Netlister
*   VMAC version : 20.06.26_rc
*   Generated for: hspiceD
*   Generated on: Jun 11 02:07:17 2022
*   Design library name: flat_schematic_lib
*   Design cell name: i0minv000ab1n03x5
*   Design view name: schematic
*   Library name: flat_schematic_lib
*   Cell name: i0minv000ab1n03x5
*   View name: schematic
.SUBCKT i0minv000ab1n03x5 a o1 vcc vssx 
*   INOUT: vcc vssx
*   INPUT: a
*   OUTPUT: o1
Mg101.qna.mn3 o1 a vssx vssx nhpalvt W=3 L=14e-9 M=1 NF=1 LVSEXACTMATCH=1 
Mg101.qpa.mp3 o1 a vcc vcc phpalvt W=3 L=14e-9 M=1 NF=1 LVSEXACTMATCH=1 
.ENDS

*   Netlist Is Generated By VMAC Netlister
*   VMAC version : 20.06.26_rc
*   Generated for: hspiceD
*   Generated on: Jun 11 02:49:31 2022
*   Design library name: flat_schematic_lib
*   Design cell name: i0minv000ab1n04x5
*   Design view name: schematic
*   Library name: flat_schematic_lib
*   Cell name: i0minv000ab1n04x5
*   View name: schematic
.SUBCKT i0minv000ab1n04x5 a o1 vcc vssx 
*   INOUT: vcc vssx
*   INPUT: a
*   OUTPUT: o1
Mg101.qna.mn2 o1 a vssx vssx nhpalvt W=2 L=14e-9 M=2 NF=1 LVSEXACTMATCH=1 
Mg101.qpa.mp2 o1 a vcc vcc phpalvt W=2 L=14e-9 M=2 NF=1 LVSEXACTMATCH=1 
.ENDS

*   Netlist Is Generated By VMAC Netlister
*   VMAC version : 20.06.26_rc
*   Generated for: hspiceD
*   Generated on: Jun 11 21:31:10 2022
*   Design library name: flat_schematic_lib
*   Design cell name: i0minv000ab1n18x5
*   Design view name: schematic
*   Library name: flat_schematic_lib
*   Cell name: i0minv000ab1n18x5
*   View name: schematic
.SUBCKT i0minv000ab1n18x5 a o1 vcc vssx 
*   INOUT: vcc vssx
*   INPUT: a
*   OUTPUT: o1
Mg101.qna.mn3 o1 a vssx vssx nhpalvt W=3 L=14e-9 M=6 NF=1 LVSEXACTMATCH=1 
Mg101.qpa.mp3 o1 a vcc vcc phpalvt W=3 L=14e-9 M=6 NF=1 LVSEXACTMATCH=1 
.ENDS

*   Netlist Is Generated By VMAC Netlister
*   VMAC version : 20.06.26_rc
*   Generated for: hspiceD
*   Generated on: Jun 11 06:38:04 2022
*   Design library name: flat_schematic_lib
*   Design cell name: i0minv000ab1n24x5
*   Design view name: schematic
*   Library name: flat_schematic_lib
*   Cell name: i0minv000ab1n24x5
*   View name: schematic
.SUBCKT i0minv000ab1n24x5 a o1 vcc vssx 
*   INOUT: vcc vssx
*   INPUT: a
*   OUTPUT: o1
Mg101.qna.mn3 o1 a vssx vssx nhpalvt W=3 L=14e-9 M=8 NF=1 LVSEXACTMATCH=1 
Mg101.qpa.mp3 o1 a vcc vcc phpalvt W=3 L=14e-9 M=8 NF=1 LVSEXACTMATCH=1 
.ENDS

*   Netlist Is Generated By VMAC Netlister
*   VMAC version : 20.06.26_rc
*   Generated for: hspiceD
*   Generated on: Jun 11 06:38:43 2022
*   Design library name: flat_schematic_lib
*   Design cell name: i0mmdn022ab1n06x5
*   Design view name: schematic
*   Library name: flat_schematic_lib
*   Cell name: i0mmdn022ab1n06x5
*   View name: schematic
.SUBCKT i0mmdn022ab1n06x5 a b o1 sa vcc vssx 
*   INOUT: vcc vssx
*   INPUT: a b sa
*   OUTPUT: o1
Mg5.qpsb.mp3 o1 sa n1 vcc phpalvt W=3 L=14e-9 M=2 NF=1 LVSEXACTMATCH=1 
Mg5.qns.mn3 o1 n2 n1 vssx nhpalvt W=3 L=14e-9 M=2 NF=1 LVSEXACTMATCH=1 
Mg2.qpsb.mp3 o1 n2 n0 vcc phpalvt W=3 L=14e-9 M=2 NF=1 LVSEXACTMATCH=1 
Mg2.qns.mn3 o1 sa n0 vssx nhpalvt W=3 L=14e-9 M=2 NF=1 LVSEXACTMATCH=1 
Mg3.qpa.mp3 n2 sa vcc vcc phpalvt W=3 L=14e-9 M=1 NF=1 LVSEXACTMATCH=1 
Mg3.qna.mn3 n2 sa vssx vssx nhpalvt W=3 L=14e-9 M=1 NF=1 LVSEXACTMATCH=1 
Mg1.qpa.mp3 n0 a vcc vcc phpalvt W=3 L=14e-9 M=3 NF=1 LVSEXACTMATCH=1 
Mg1.qna.mn3 n0 a vssx vssx nhpalvt W=3 L=14e-9 M=3 NF=1 LVSEXACTMATCH=1 
Mg4.qpa.mp3 n1 b vcc vcc phpalvt W=3 L=14e-9 M=3 NF=1 LVSEXACTMATCH=1 
Mg4.qna.mn3 n1 b vssx vssx nhpalvt W=3 L=14e-9 M=3 NF=1 LVSEXACTMATCH=1 
.ENDS

*   Netlist Is Generated By VMAC Netlister
*   VMAC version : 20.06.26_rc
*   Generated for: hspiceD
*   Generated on: Jun 11 06:34:29 2022
*   Design library name: flat_schematic_lib
*   Design cell name: i0mnand02ab1n12x5
*   Design view name: schematic
*   Library name: flat_schematic_lib
*   Cell name: i0mnand02ab1n12x5
*   View name: schematic
.SUBCKT i0mnand02ab1n12x5 a b o1 vcc vssx 
*   INOUT: vcc vssx
*   INPUT: a b
*   OUTPUT: o1
Mg0.qna.mn3 o1 a g0.n1 vssx nhpalvt W=3 L=14e-9 M=6 NF=1 LVSEXACTMATCH=1 
Mg0.qnb.mn3 g0.n1 b vssx vssx nhpalvt W=3 L=14e-9 M=6 NF=1 LVSEXACTMATCH=1 
Mg0.qpa.mp2 o1 a vcc vcc phpalvt W=2 L=14e-9 M=6 NF=1 LVSEXACTMATCH=1 
Mg0.qpb.mp2 o1 b vcc vcc phpalvt W=2 L=14e-9 M=6 NF=1 LVSEXACTMATCH=1 
.ENDS

*   Netlist Is Generated By VMAC Netlister
*   VMAC version : 20.06.26_rc
*   Generated for: hspiceD
*   Generated on: Jun 11 22:43:30 2022
*   Design library name: flat_schematic_lib
*   Design cell name: i0mnand02ac1n03x5
*   Design view name: schematic
*   Library name: flat_schematic_lib
*   Cell name: i0mnand02ac1n03x5
*   View name: schematic
.SUBCKT i0mnand02ac1n03x5 a b o1 vcc vssx 
*   INOUT: vcc vssx
*   INPUT: a b
*   OUTPUT: o1
Mg0.qna.mn2 o1 a g0.n1 vssx nhpasvt W=2 L=14e-9 M=2 NF=1 LVSEXACTMATCH=1 
Mg0.qnb.mn2 g0.n1 b vssx vssx nhpasvt W=2 L=14e-9 M=2 NF=1 LVSEXACTMATCH=1 
Mg0.qpa.mp3 o1 a vcc vcc phpasvt W=3 L=14e-9 M=1 NF=1 LVSEXACTMATCH=1 
Mg0.qpb.mp3 o1 b vcc vcc phpasvt W=3 L=14e-9 M=1 NF=1 LVSEXACTMATCH=1 
.ENDS

*   Netlist Is Generated By VMAC Netlister
*   VMAC version : 20.06.26_rc
*   Generated for: hspiceD
*   Generated on: Sep  1 23:26:06 2022
*   Design library name: flat_schematic_lib
*   Design cell name: i0mcilb81ab1n18x5
*   Design view name: schematic
*   Library name: flat_schematic_lib
*   Cell name: i0mcilb81ab1n18x5
*   View name: schematic
.SUBCKT i0mcilb81ab1n18x5 clk clkout en te vcc vssx 
*   INOUT: vcc vssx
*   INPUT: clk en te
*   OUTPUT: clkout
Mg3.qnck.mn2 nk1 nc3 g3.n2 vssx nhpalvt W=2 L=14e-9 M=1 NF=1 LVSEXACTMATCH=1 
Mg3.qnd.mn2 g3.n2 nk2 vssx vssx nhpalvt W=2 L=14e-9 M=1 NF=1 LVSEXACTMATCH=1 
Mg3.qpckb.mp2 nk1 nc2 g3.n1 vcc phpalvt W=2 L=14e-9 M=1 NF=1 LVSEXACTMATCH=1 
Mg3.qpd.mp2 g3.n1 nk2 vcc vcc phpalvt W=2 L=14e-9 M=1 NF=1 LVSEXACTMATCH=1 
Mg101.qp0.mp3 clkout nc9 vcc vcc phpalvt W=3 L=14e-9 M=6 NF=1 LVSEXACTMATCH=1 
Mg101.qn0.mn3 clkout nc9 vssx vssx nhpalvt W=3 L=14e-9 M=6 NF=1 LVSEXACTMATCH=1 
Mg42.qpb.mp2 g42.n1 te vcc vcc phpalvt W=2 L=14e-9 M=1 NF=1 LVSEXACTMATCH=1 
Mg42.qpa.mp2 n8 en g42.n1 vcc phpalvt W=2 L=14e-9 M=1 NF=1 LVSEXACTMATCH=1 
Mg42.qnb.mn2 n8 te vssx vssx nhpalvt W=2 L=14e-9 M=1 NF=1 LVSEXACTMATCH=1 
Mg42.qna.mn2 n8 en vssx vssx nhpalvt W=2 L=14e-9 M=1 NF=1 LVSEXACTMATCH=1 
Mg43.qpb.mp3 g43.n1 n7 vcc vcc phpalvt W=3 L=14e-9 M=3 NF=1 LVSEXACTMATCH=1 
Mg43.qpa.mp3 nc9 clk g43.n1 vcc phpalvt W=3 L=14e-9 M=2 NF=1 LVSEXACTMATCH=1 
Mg43.qnb.mn2 nc9 n7 vssx vssx nhpalvt W=2 L=14e-9 M=2 NF=1 LVSEXACTMATCH=1 
Mg43.qna.mn2 nc9 clk vssx vssx nhpalvt W=2 L=14e-9 M=2 NF=1 LVSEXACTMATCH=1 
Mg1.qpa.mp2 nc2 nc3 vcc vcc phpalvt W=2 L=14e-9 M=1 NF=1 LVSEXACTMATCH=1 
Mg1.qna.mn2 nc2 nc3 vssx vssx nhpalvt W=2 L=14e-9 M=1 NF=1 LVSEXACTMATCH=1 
Mg0.qpa.mp2 nc3 clk vcc vcc phpalvt W=2 L=14e-9 M=1 NF=1 LVSEXACTMATCH=1 
Mg0.qna.mn2 nc3 clk vssx vssx nhpalvt W=2 L=14e-9 M=1 NF=1 LVSEXACTMATCH=1 
Mg5.qpa.mp2 n7 nk2 vcc vcc phpalvt W=2 L=14e-9 M=1 NF=1 LVSEXACTMATCH=1 
Mg5.qna.mn2 n7 nk2 vssx vssx nhpalvt W=2 L=14e-9 M=1 NF=1 LVSEXACTMATCH=1 
Mg4.qpa.mp2 nk2 nk1 vcc vcc phpalvt W=2 L=14e-9 M=1 NF=1 LVSEXACTMATCH=1 
Mg4.qna.mn2 nk2 nk1 vssx vssx nhpalvt W=2 L=14e-9 M=1 NF=1 LVSEXACTMATCH=1 
Mg2.qpsb.mp2 nk1 nc3 n8 vcc phpalvt W=2 L=14e-9 M=1 NF=1 LVSEXACTMATCH=1 
Mg2.qns.mn2 nk1 nc2 n8 vssx nhpalvt W=2 L=14e-9 M=1 NF=1 LVSEXACTMATCH=1 
.ENDS

*   Netlist Is Generated By VMAC Netlister
*   VMAC version : 20.06.26_rc
*   Generated for: hspiceD
*   Generated on: Jun 12 01:33:25 2022
*   Design library name: flat_schematic_lib
*   Design cell name: i0mlsn280ab1d09x5
*   Design view name: schematic
*   Library name: flat_schematic_lib
*   Cell name: i0mlsn280ab1d09x5
*   View name: schematic
.SUBCKT i0mlsn280ab1d09x5 clkb d1 d2 o1 o2 vcc vssx 
*   INOUT: vcc vssx
*   INPUT: clkb d1 d2
*   OUTPUT: o1 o2
Mg2lp1.qpa.mp2 nk12 nk11 vcc vcc phpalvt W=2 L=14e-9 M=1 NF=1 LVSEXACTMATCH=1 
Mg2lp1.qna.mn2 nk12 nk11 vssx vssx nhpalvt W=2 L=14e-9 M=1 NF=1 LVSEXACTMATCH=1 
Mg21.qpa.mp3 n13 d1 vcc vcc phpalvt W=3 L=14e-9 M=2 NF=1 LVSEXACTMATCH=1 
Mg21.qna.mn3 n13 d1 vssx vssx nhpalvt W=3 L=14e-9 M=2 NF=1 LVSEXACTMATCH=1 
Mg22.qpa.mp3 n23 d2 vcc vcc phpalvt W=3 L=14e-9 M=2 NF=1 LVSEXACTMATCH=1 
Mg22.qna.mn3 n23 d2 vssx vssx nhpalvt W=3 L=14e-9 M=2 NF=1 LVSEXACTMATCH=1 
Mg2lp2.qpa.mp2 nk22 nk21 vcc vcc phpalvt W=2 L=14e-9 M=1 NF=1 LVSEXACTMATCH=1 
Mg2lp2.qna.mn2 nk22 nk21 vssx vssx nhpalvt W=2 L=14e-9 M=1 NF=1 LVSEXACTMATCH=1 
Mg1.qpa.mp2 nc1 clkb vcc vcc phpalvt W=2 L=14e-9 M=1 NF=1 LVSEXACTMATCH=1 
Mg1.qna.mn2 nc1 clkb vssx vssx nhpalvt W=2 L=14e-9 M=1 NF=1 LVSEXACTMATCH=1 
Mg1lp1.qpsb.mp3 nk11 clkb n13 vcc phpalvt W=3 L=14e-9 M=1 NF=1 LVSEXACTMATCH=1 
Mg1lp1.qns.mn3 nk11 nc1 n13 vssx nhpalvt W=3 L=14e-9 M=1 NF=1 LVSEXACTMATCH=1 
Mg1lp2.qpsb.mp3 nk21 clkb n23 vcc phpalvt W=3 L=14e-9 M=1 NF=1 LVSEXACTMATCH=1 
Mg1lp2.qns.mn3 nk21 nc1 n23 vssx nhpalvt W=3 L=14e-9 M=1 NF=1 LVSEXACTMATCH=1 
Mg102.qna.mn3 o2 nk21 vssx vssx nhpalvt W=3 L=14e-9 M=3 NF=1 LVSEXACTMATCH=1 
Mg102.qpa.mp3 o2 nk21 vcc vcc phpalvt W=3 L=14e-9 M=3 NF=1 LVSEXACTMATCH=1 
Mg101.qna.mn3 o1 nk11 vssx vssx nhpalvt W=3 L=14e-9 M=3 NF=1 LVSEXACTMATCH=1 
Mg101.qpa.mp3 o1 nk11 vcc vcc phpalvt W=3 L=14e-9 M=3 NF=1 LVSEXACTMATCH=1 
Mg3lp1.qnck.mn2 nk11 clkb g3lp1.n2 vssx nhpalvt W=2 L=14e-9 M=1 NF=1 LVSEXACTMATCH=1 
Mg3lp1.qnd.mn2 g3lp1.n2 nk12 vssx vssx nhpalvt W=2 L=14e-9 M=1 NF=1 LVSEXACTMATCH=1 
Mg3lp1.qpckb.mp2 nk11 nc1 g3lp1.n1 vcc phpalvt W=2 L=14e-9 M=1 NF=1 LVSEXACTMATCH=1 
Mg3lp1.qpd.mp2 g3lp1.n1 nk12 vcc vcc phpalvt W=2 L=14e-9 M=1 NF=1 LVSEXACTMATCH=1 
Mg3lp2.qnck.mn2 nk21 clkb g3lp2.n2 vssx nhpalvt W=2 L=14e-9 M=1 NF=1 LVSEXACTMATCH=1 
Mg3lp2.qnd.mn2 g3lp2.n2 nk22 vssx vssx nhpalvt W=2 L=14e-9 M=1 NF=1 LVSEXACTMATCH=1 
Mg3lp2.qpckb.mp2 nk21 nc1 g3lp2.n1 vcc phpalvt W=2 L=14e-9 M=1 NF=1 LVSEXACTMATCH=1 
Mg3lp2.qpd.mp2 g3lp2.n1 nk22 vcc vcc phpalvt W=2 L=14e-9 M=1 NF=1 LVSEXACTMATCH=1 
.ENDS

*   Netlist Is Generated By VMAC Netlister
*   VMAC version : 20.06.26_rc
*   Generated for: hspiceD
*   Generated on: Jun 11 02:08:07 2022
*   Design library name: flat_schematic_lib
*   Design cell name: i0mqsnbf1ab1n12x5
*   Design view name: schematic
*   Library name: flat_schematic_lib
*   Cell name: i0mqsnbf1ab1n12x5
*   View name: schematic
.SUBCKT i0mqsnbf1ab1n12x5 vcc vssx 
*   INOUT: vcc vssx
*   INPUT:
*   OUTPUT:
Mqp0.mp3 n0p vssx vcc vcc phpalvt W=3 L=14e-9 M=1 NF=1 LVSEXACTMATCH=1 
Mqp1.mp3 nop vssx vcc vcc phpalvt W=3 L=14e-9 M=4 NF=1 LVSEXACTMATCH=1 
Mqn0.mn3 n0n vssx vssx vssx nhpalvt W=3 L=14e-9 M=1 NF=1 LVSEXACTMATCH=1 
Mqn1.mn3 non vssx vssx vssx nhpalvt W=3 L=14e-9 M=4 NF=1 LVSEXACTMATCH=1 
.ENDS

*   Netlist Is Generated By VMAC Netlister
*   VMAC version : 20.06.26_rc
*   Generated for: hspiceD
*   Generated on: Jun 11 04:29:02 2022
*   Design library name: flat_schematic_lib
*   Design cell name: i0mqsnna3ab1n06x5
*   Design view name: schematic
*   Library name: flat_schematic_lib
*   Cell name: i0mqsnna3ab1n06x5
*   View name: schematic
.SUBCKT i0mqsnna3ab1n06x5 vcc vssx 
*   INOUT: vcc vssx
*   INPUT:
*   OUTPUT:
Mqnb1.mn3 n1 vssx n2 vssx nhpalvt W=3 L=14e-9 M=2 NF=1 LVSEXACTMATCH=1 
Mqna1.mn3 no1n vssx n1 vssx nhpalvt W=3 L=14e-9 M=2 NF=1 LVSEXACTMATCH=1 
Mqnc1.mn3 n2 vssx vssx vssx nhpalvt W=3 L=14e-9 M=2 NF=1 LVSEXACTMATCH=1 
Mqpb1.mp3 no1p vssx vcc vcc phpalvt W=3 L=14e-9 M=2 NF=1 LVSEXACTMATCH=1 
Mqpc1.mp3 no1p vssx vcc vcc phpalvt W=3 L=14e-9 M=2 NF=1 LVSEXACTMATCH=1 
Mqpa1.mp3 no1p vssx vcc vcc phpalvt W=3 L=14e-9 M=2 NF=1 LVSEXACTMATCH=1 
.ENDS

*   Netlist Is Generated By VMAC Netlister
*   VMAC version : 20.06.26_rc
*   Generated for: hspiceD
*   Generated on: Jun 12 04:00:08 2022
*   Design library name: flat_schematic_lib
*   Design cell name: i0mzdcf33ub1n32x5
*   Design view name: schematic
*   Library name: flat_schematic_lib
*   Cell name: i0mzdcf33ub1n32x5
*   View name: schematic
.SUBCKT i0mzdcf33ub1n32x5 vcc vssx 
*   INOUT: vcc vssx
*   INPUT:
*   OUTPUT:
Mqpdecap1.mp3 vcc vssx vcc vcc phpalvt W=3 L=14e-9 M=24 NF=1 LVSEXACTMATCH=1 
.ENDS

*   Netlist Is Generated By VMAC Netlister
*   VMAC version : 20.06.26_rc
*   Generated for: hspiceD
*   Generated on: Jun 11 14:46:05 2022
*   Design library name: flat_schematic_lib
*   Design cell name: i0mzdcf33ub1n04x5
*   Design view name: schematic
*   Library name: flat_schematic_lib
*   Cell name: i0mzdcf33ub1n04x5
*   View name: schematic
.SUBCKT i0mzdcf33ub1n04x5 vcc vssx 
*   INOUT: vcc vssx
*   INPUT:
*   OUTPUT:
Mqpdecap1.mp3 vcc vssx vcc vcc phpalvt W=3 L=14e-9 M=3 NF=1 LVSEXACTMATCH=1 
.ENDS

*   Netlist Is Generated By VMAC Netlister
*   VMAC version : 20.06.26_rc
*   Generated for: hspiceD
*   Generated on: Jun 11 14:25:41 2022
*   Design library name: flat_schematic_lib
*   Design cell name: i0mqsnbf1ab1n18x5
*   Design view name: schematic
*   Library name: flat_schematic_lib
*   Cell name: i0mqsnbf1ab1n18x5
*   View name: schematic
.SUBCKT i0mqsnbf1ab1n18x5 vcc vssx 
*   INOUT: vcc vssx
*   INPUT:
*   OUTPUT:
Mqp0.mp3 n0p vssx vcc vcc phpalvt W=3 L=14e-9 M=2 NF=1 LVSEXACTMATCH=1 
Mqp1.mp3 nop vssx vcc vcc phpalvt W=3 L=14e-9 M=6 NF=1 LVSEXACTMATCH=1 
Mqn0.mn3 n0n vssx vssx vssx nhpalvt W=3 L=14e-9 M=2 NF=1 LVSEXACTMATCH=1 
Mqn1.mn3 non vssx vssx vssx nhpalvt W=3 L=14e-9 M=6 NF=1 LVSEXACTMATCH=1 
.ENDS

*   Netlist Is Generated By VMAC Netlister
*   VMAC version : 20.06.26_rc
*   Generated for: hspiceD
*   Generated on: Jun 11 06:24:23 2022
*   Design library name: flat_schematic_lib
*   Design cell name: i0mqsnin1ab1n12x5
*   Design view name: schematic
*   Library name: flat_schematic_lib
*   Cell name: i0mqsnin1ab1n12x5
*   View name: schematic
.SUBCKT i0mqsnin1ab1n12x5 vcc vssx 
*   INOUT: vcc vssx
*   INPUT:
*   OUTPUT:
Mqn1.mn3 no1n vssx vssx vssx nhpalvt W=3 L=14e-9 M=4 NF=1 LVSEXACTMATCH=1 
Mqp1.mp3 no1p vssx vcc vcc phpalvt W=3 L=14e-9 M=4 NF=1 LVSEXACTMATCH=1 
.ENDS

*   Netlist Is Generated By VMAC Netlister
*   VMAC version : 20.06.26_rc
*   Generated for: hspiceD
*   Generated on: Jun 11 14:43:53 2022
*   Design library name: flat_schematic_lib
*   Design cell name: i0mqsnca4ab1n06x5
*   Design view name: schematic
*   Library name: flat_schematic_lib
*   Cell name: i0mqsnca4ab1n06x5
*   View name: schematic
.SUBCKT i0mqsnca4ab1n06x5 vcc vssx 
*   INOUT: vcc vssx
*   INPUT:
*   OUTPUT:
Mqnd1.mn3 n3 vssx vssx vssx nhpalvt W=3 L=14e-9 M=2 NF=1 LVSEXACTMATCH=1 
Mqnb1.mn3 n2 vssx vssx vssx nhpalvt W=3 L=14e-9 M=2 NF=1 LVSEXACTMATCH=1 
Mqna1.mn3 no1n vssx n2 vssx nhpalvt W=3 L=14e-9 M=2 NF=1 LVSEXACTMATCH=1 
Mqnc1.mn3 no1n vssx n3 vssx nhpalvt W=3 L=14e-9 M=2 NF=1 LVSEXACTMATCH=1 
Mqpa1.mp3 no1p vssx n1 vcc phpalvt W=3 L=14e-9 M=2 NF=1 LVSEXACTMATCH=1 
Mqpc1.mp3 n1 vssx vcc vcc phpalvt W=3 L=14e-9 M=2 NF=1 LVSEXACTMATCH=1 
Mqpd1.mp3 n1 vssx vcc vcc phpalvt W=3 L=14e-9 M=2 NF=1 LVSEXACTMATCH=1 
Mqpb1.mp3 no1p vssx n1 vcc phpalvt W=3 L=14e-9 M=2 NF=1 LVSEXACTMATCH=1 
.ENDS

*   Netlist Is Generated By VMAC Netlister
*   VMAC version : 20.06.26_rc
*   Generated for: hspiceD
*   Generated on: Jun 11 04:31:14 2022
*   Design library name: flat_schematic_lib
*   Design cell name: i0mqsnno3ab1n06x5
*   Design view name: schematic
*   Library name: flat_schematic_lib
*   Cell name: i0mqsnno3ab1n06x5
*   View name: schematic
.SUBCKT i0mqsnno3ab1n06x5 vcc vssx 
*   INOUT: vcc vssx
*   INPUT:
*   OUTPUT:
Mqnc1.mn3 no1n vssx vssx vssx nhpalvt W=3 L=14e-9 M=2 NF=1 LVSEXACTMATCH=1 
Mqnb1.mn3 no1n vssx vssx vssx nhpalvt W=3 L=14e-9 M=2 NF=1 LVSEXACTMATCH=1 
Mqna1.mn3 no1n vssx vssx vssx nhpalvt W=3 L=14e-9 M=2 NF=1 LVSEXACTMATCH=1 
Mqpb1.mp3 n1 vssx n2 vcc phpalvt W=3 L=14e-9 M=2 NF=1 LVSEXACTMATCH=1 
Mqpc1.mp3 n2 vssx vcc vcc phpalvt W=3 L=14e-9 M=2 NF=1 LVSEXACTMATCH=1 
Mqpa1.mp3 no1p vssx n1 vcc phpalvt W=3 L=14e-9 M=2 NF=1 LVSEXACTMATCH=1 
.ENDS

*   Netlist Is Generated By VMAC Netlister
*   VMAC version : 20.06.26_rc
*   Generated for: hspiceD
*   Generated on: Jun 11 11:31:46 2022
*   Design library name: flat_schematic_lib
*   Design cell name: i0mqsnin1ab1n18x5
*   Design view name: schematic
*   Library name: flat_schematic_lib
*   Cell name: i0mqsnin1ab1n18x5
*   View name: schematic
.SUBCKT i0mqsnin1ab1n18x5 vcc vssx 
*   INOUT: vcc vssx
*   INPUT:
*   OUTPUT:
Mqn1.mn3 no1n vssx vssx vssx nhpalvt W=3 L=14e-9 M=6 NF=1 LVSEXACTMATCH=1 
Mqp1.mp3 no1p vssx vcc vcc phpalvt W=3 L=14e-9 M=6 NF=1 LVSEXACTMATCH=1 
.ENDS

*   Netlist Is Generated By VMAC Netlister
*   VMAC version : 20.06.26_rc
*   Generated for: hspiceD
*   Generated on: Jun 11 02:46:44 2022
*   Design library name: flat_schematic_lib
*   Design cell name: i0mqsnfs4ab1d06x5
*   Design view name: schematic
*   Library name: flat_schematic_lib
*   Cell name: i0mqsnfs4ab1d06x5
*   View name: schematic
.SUBCKT i0mqsnfs4ab1d06x5 vcc vssx 
*   INOUT: vcc vssx
*   INPUT:
*   OUTPUT:
Mqn1.mn3 no1n nk5 vssx vssx nhpalvt W=3 L=14e-9 M=2 NF=1 LVSEXACTMATCH=1 
Mgfb2.qpa.mp2 n4 n3 vcc vcc phpalvt W=2 L=14e-9 M=1 NF=1 LVSEXACTMATCH=1 
Mgfb2.qna.mn2 n4 n3 vssx vssx nhpalvt W=2 L=14e-9 M=1 NF=1 LVSEXACTMATCH=1 
Mgsel2.qpa.mp2 n6 n5 vcc vcc phpalvt W=2 L=14e-9 M=1 NF=1 LVSEXACTMATCH=1 
Mgsel2.qna.mn2 n6 n5 vssx vssx nhpalvt W=2 L=14e-9 M=1 NF=1 LVSEXACTMATCH=1 
Mgclkn.qpa.mp2 nc1 vssx vcc vcc phpalvt W=2 L=14e-9 M=1 NF=1 LVSEXACTMATCH=1 
Mgclkn.qna.mn2 nc1 vssx vssx vssx nhpalvt W=2 L=14e-9 M=1 NF=1 LVSEXACTMATCH=1 
Mgd1n.qpa.mp2 nk4 nk3 vcc vcc phpalvt W=2 L=14e-9 M=2 NF=1 LVSEXACTMATCH=1 
Mgd1n.qna.mn2 nk4 nk3 vssx vssx nhpalvt W=2 L=14e-9 M=2 NF=1 LVSEXACTMATCH=1 
Mgd2n.qpa.mp2 nk6 nk5 vcc vcc phpalvt W=2 L=14e-9 M=1 NF=1 LVSEXACTMATCH=1 
Mgd2n.qna.mn2 nk6 nk5 vssx vssx nhpalvt W=2 L=14e-9 M=1 NF=1 LVSEXACTMATCH=1 
Mgclkdd.qpa.mp2 nc2 nc1 vcc vcc phpalvt W=2 L=14e-9 M=1 NF=1 LVSEXACTMATCH=1 
Mgclkdd.qna.mn2 nc2 nc1 vssx vssx nhpalvt W=2 L=14e-9 M=1 NF=1 LVSEXACTMATCH=1 
Mqp1.mp3 no1p nk5 vcc vcc phpalvt W=3 L=14e-9 M=2 NF=1 LVSEXACTMATCH=1 
Mgtd2.qpsb.mp2 nk5 nc1 nk4 vcc phpalvt W=2 L=14e-9 M=1 NF=1 LVSEXACTMATCH=1 
Mgtd2.qns.mn2 nk5 nc2 nk4 vssx nhpalvt W=2 L=14e-9 M=1 NF=1 LVSEXACTMATCH=1 
Mgtd1.qnck.mn2 nk3 nc1 gtd1.n2 vssx nhpalvt W=2 L=14e-9 M=1 NF=1 LVSEXACTMATCH=1 
Mgtd1.qnd.mn2 gtd1.n2 n1 vssx vssx nhpalvt W=2 L=14e-9 M=1 NF=1 LVSEXACTMATCH=1 
Mgtd1.qpckb.mp2 nk3 nc2 gtd1.n1 vcc phpalvt W=2 L=14e-9 M=1 NF=1 LVSEXACTMATCH=1 
Mgtd1.qpd.mp2 gtd1.n1 n1 vcc vcc phpalvt W=2 L=14e-9 M=1 NF=1 LVSEXACTMATCH=1 
Mgin1.qnck.mn2 n1 n6 gin1.n2 vssx nhpalvt W=2 L=14e-9 M=1 NF=1 LVSEXACTMATCH=1 
Mgin1.qnd.mn2 gin1.n2 vssx vssx vssx nhpalvt W=2 L=14e-9 M=1 NF=1 LVSEXACTMATCH=1 
Mgin1.qpckb.mp2 n1 n5 gin1.n1 vcc phpalvt W=2 L=14e-9 M=1 NF=1 LVSEXACTMATCH=1 
Mgin1.qpd.mp2 gin1.n1 vssx vcc vcc phpalvt W=2 L=14e-9 M=1 NF=1 LVSEXACTMATCH=1 
Mgfb3.qnck.mn2 n1 n5 gfb3.n2 vssx nhpalvt W=2 L=14e-9 M=1 NF=1 LVSEXACTMATCH=1 
Mgfb3.qnd.mn2 gfb3.n2 n4 vssx vssx nhpalvt W=2 L=14e-9 M=1 NF=1 LVSEXACTMATCH=1 
Mgfb3.qpckb.mp2 n1 n6 gfb3.n1 vcc phpalvt W=2 L=14e-9 M=1 NF=1 LVSEXACTMATCH=1 
Mgfb3.qpd.mp2 gfb3.n1 n4 vcc vcc phpalvt W=2 L=14e-9 M=1 NF=1 LVSEXACTMATCH=1 
Mgd1.qnck.mn2 nk3 nc2 gd1.n2 vssx nhpalvt W=2 L=14e-9 M=1 NF=1 LVSEXACTMATCH=1 
Mgd1.qnd.mn2 gd1.n2 nk4 vssx vssx nhpalvt W=2 L=14e-9 M=1 NF=1 LVSEXACTMATCH=1 
Mgd1.qpckb.mp2 nk3 nc1 gd1.n1 vcc phpalvt W=2 L=14e-9 M=1 NF=1 LVSEXACTMATCH=1 
Mgd1.qpd.mp2 gd1.n1 nk4 vcc vcc phpalvt W=2 L=14e-9 M=1 NF=1 LVSEXACTMATCH=1 
Mgd2.qnck.mn2 nk5 nc1 gd2.n2 vssx nhpalvt W=2 L=14e-9 M=1 NF=1 LVSEXACTMATCH=1 
Mgd2.qnd.mn2 gd2.n2 nk6 vssx vssx nhpalvt W=2 L=14e-9 M=1 NF=1 LVSEXACTMATCH=1 
Mgd2.qpckb.mp2 nk5 nc2 gd2.n1 vcc phpalvt W=2 L=14e-9 M=1 NF=1 LVSEXACTMATCH=1 
Mgd2.qpd.mp2 gd2.n1 nk6 vcc vcc phpalvt W=2 L=14e-9 M=1 NF=1 LVSEXACTMATCH=1 
Mgfb1.qna.mn2 n3 vssx gfb1.n1 vssx nhpalvt W=2 L=14e-9 M=1 NF=1 LVSEXACTMATCH=1 
Mgfb1.qnb.mn2 gfb1.n1 nk6 vssx vssx nhpalvt W=2 L=14e-9 M=1 NF=1 LVSEXACTMATCH=1 
Mgfb1.qpa.mp2 n3 vssx vcc vcc phpalvt W=2 L=14e-9 M=1 NF=1 LVSEXACTMATCH=1 
Mgfb1.qpb.mp2 n3 nk6 vcc vcc phpalvt W=2 L=14e-9 M=1 NF=1 LVSEXACTMATCH=1 
Mgsel1.qna.mn2 n5 vssx gsel1.n1 vssx nhpalvt W=2 L=14e-9 M=1 NF=1 LVSEXACTMATCH=1 
Mgsel1.qnb.mn2 gsel1.n1 vssx vssx vssx nhpalvt W=2 L=14e-9 M=1 NF=1 LVSEXACTMATCH=1 
Mgsel1.qpa.mp2 n5 vssx vcc vcc phpalvt W=2 L=14e-9 M=1 NF=1 LVSEXACTMATCH=1 
Mgsel1.qpb.mp2 n5 vssx vcc vcc phpalvt W=2 L=14e-9 M=1 NF=1 LVSEXACTMATCH=1 
.ENDS

*   Netlist Is Generated By VMAC Netlister
*   VMAC version : 20.06.26_rc
*   Generated for: hspiceD
*   Generated on: Jun 11 20:52:14 2022
*   Design library name: flat_schematic_lib
*   Design cell name: i0mydp122ub1n00x5
*   Design view name: schematic
*   Library name: flat_schematic_lib
*   Cell name: i0mydp122ub1n00x5
*   View name: schematic
.SUBCKT i0mydp122ub1n00x5 dpd1 vcc vssx 
*   INOUT: vcc vssx
*   INPUT: dpd1
*   OUTPUT:
Mqngnac1.mn2 dpd1 vssx vssx vssx nhpalvt W=2 L=14e-9 M=1 NF=1 LVSEXACTMATCH=1 
.ENDS
